Failed models: testsfr2_tab, l1b2k_bath
Models with diff too large: swi2ex4sww, testsfr2_tab, UZFtest2, fhb, swtex4, test1ss, mnw1, test1tr, tr2k_s3
Diff failed: l1b2k_bath
{   'dif': [   '--- swi2ex4swwreference namefile\n',
               '+++ swi2ex4swwdirect namefile\n',
               '@@ -34 +34 @@\n',
               '- FORMAT:BINARY                 ACCESS:SEQUENTIAL          \n',
               '+ FORMAT:UNFORMATTED            ACCESS:STREAM              \n',
               '@@ -42 +42 @@\n',
               '- FORMAT:BINARY                 ACCESS:SEQUENTIAL          \n',
               '+ FORMAT:UNFORMATTED            ACCESS:STREAM              \n',
               '@@ -31141,3 +31141,3 @@\n',
               '- Run end date and time (yyyy/mm/dd hh:mm:ss): 2017/02/02 '
               '12:57:39\n',
               '- Elapsed run time: 23.697 Seconds\n',
               '-\n',
               '+ Run end date and time (yyyy/mm/dd hh:mm:ss): 2021/05/02 '
               '21:41:17\n',
               '+ Elapsed run time: 14.983 Seconds\n',
               '+\n'],
    'mes': [],
    'suc': True}

{   'dif': [   '--- testsfr2_tabreference namefile\n',
               '+++ testsfr2_tabdirect namefile\n',
               '@@ -37,17371 +37,6 @@\n',
               '- OPENING testsfr2_tab.gag\n',
               '- FILE TYPE:GAGE   UNIT   46   STATUS:OLD    \n',
               '- FORMAT:FORMATTED              ACCESS:SEQUENTIAL          \n',
               '-\n',
               '- OPENING testsfr2_tab.gg1\n',
               '- FILE TYPE:DATA   UNIT   83   STATUS:UNKNOWN\n',
               '- FORMAT:FORMATTED              ACCESS:SEQUENTIAL          \n',
               '-\n',
               '- OPENING testsfr2_tab.gg2\n',
               '- FILE TYPE:DATA   UNIT   84   STATUS:UNKNOWN\n',
               '- FORMAT:FORMATTED              ACCESS:SEQUENTIAL          \n',
               '-\n',
               '- OPENING testsfr2_tab.gg3\n',
               '- FILE TYPE:DATA   UNIT   85   STATUS:UNKNOWN\n',
               '- FORMAT:FORMATTED              ACCESS:SEQUENTIAL          \n',
               '-\n',
               '- OPENING testsfr2_tab.gg4\n',
               '- FILE TYPE:DATA   UNIT   86   STATUS:UNKNOWN\n',
               '- FORMAT:FORMATTED              ACCESS:SEQUENTIAL          \n',
               '-\n',
               '- OPENING testsfr2_tab.gg5\n',
               '- FILE TYPE:DATA   UNIT   87   STATUS:UNKNOWN\n',
               '- FORMAT:FORMATTED              ACCESS:SEQUENTIAL          \n',
               '-\n',
               '- OPENING testsfr2_tab.gg6\n',
               '- FILE TYPE:DATA   UNIT   88   STATUS:UNKNOWN\n',
               '- FORMAT:FORMATTED              ACCESS:SEQUENTIAL          \n',
               '-\n',
               '- OPENING testsfr2_tab.gg7\n',
               '- FILE TYPE:DATA   UNIT   89   STATUS:UNKNOWN\n',
               '- FORMAT:FORMATTED              ACCESS:SEQUENTIAL          \n',
               '-\n',
               '- OPENING testsfr2_tab.gg8\n',
               '- FILE TYPE:DATA   UNIT   90   STATUS:UNKNOWN\n',
               '- FORMAT:FORMATTED              ACCESS:SEQUENTIAL          \n',
               '-\n',
               '- OPENING testsfr2_tab.tab\n',
               '- FILE TYPE:DATA   UNIT   55   STATUS:UNKNOWN\n',
               '- FORMAT:FORMATTED              ACCESS:SEQUENTIAL          \n',
               '-\n',
               '- BAS -- BASIC PACKAGE, VERSION 7, 5/2/2005 INPUT READ FROM '
               'UNIT   41\n',
               '- \n',
               '- MODFLOW was compiled using mixed precision\n',
               '- Precision of REAL variables:           6\n',
               '- Precision of DOUBLE PRECISION variables:          15\n',
               '-\n',
               '- DISCRETIZATION INPUT DATA READ FROM UNIT   13\n',
               '- # Discretization file input for hypothetical test '
               'simulation\n',
               '- # Units: seconds, meters\n',
               '-    1 LAYERS         7 ROWS       100 COLUMNS\n',
               '-   50 STRESS PERIOD(S) IN SIMULATION\n',
               '- MODEL TIME UNIT IS SECONDS\n',
               '- MODEL LENGTH UNIT IS METERS\n',
               '-  Confining bed flag for each layer:\n',
               '-   0\n',
               '-\n',
               '-                     DELR =   200.000    \n',
               '-\n',
               '-\n',
               '-\n',
               '-                               DELC\n',
               '- READING ON UNIT   13 WITH FORMAT: (FREE)              \n',
               '-   90.000       90.000       90.000       60.000       '
               '90.000    \n',
               '-   90.000       90.000    \n',
               '-\n',
               '-\n',
               '-\n',
               '-           TOP ELEVATION OF LAYER 1\n',
               '- READING ON UNIT   13 WITH FORMAT: (FREE)              \n',
               '-\n',
               '-           1          2          3          4          '
               '5          6          7          8          9         '
               '10         11\n',
               '-          12         13         14         15         '
               '16         17         18         19         20         '
               '21         22\n',
               '-          23         24         25         26         '
               '27         28         29         30         31         '
               '32         33\n',
               '-          34         35         36         37         '
               '38         39         40         41         42         '
               '43         44\n',
               '-          45         46         47         48         '
               '49         50         51         52         53         '
               '54         55\n',
               '-          56         57         58         59         '
               '60         61         62         63         64         '
               '65         66\n',
               '-          67         68         69         70         '
               '71         72         73         74         75         '
               '76         77\n',
               '-          78         79         80         81         '
               '82         83         84         85         86         '
               '87         88\n',
               '-          89         90         91         92         '
               '93         94         95         96         97         '
               '98         99\n',
               '-         100\n',
               '- '
               '.........................................................................................................................\n',
               '-   1    125.       124.       124.       124.       '
               '124.       123.       123.       123.       123.       '
               '122.       122.    \n',
               '-        122.       122.       121.       121.       '
               '121.       121.       120.       120.       120.       '
               '120.       119.    \n',
               '-        119.       119.       119.       118.       '
               '118.       118.       118.       117.       117.       '
               '117.       117.    \n',
               '-        116.       116.       116.       116.       '
               '115.       115.       115.       115.       114.       '
               '114.       114.    \n',
               '-        114.       113.       113.       113.       '
               '113.       112.       112.       112.       112.       '
               '111.       111.    \n',
               '-        111.       111.       110.       110.       '
               '110.       110.       109.       109.       109.       '
               '109.       108.    \n',
               '-        108.       108.       108.       107.       '
               '107.       107.       107.       106.       106.       '
               '106.       106.    \n',
               '-        105.       105.       105.       105.       '
               '104.       104.       104.       104.       103.       '
               '103.       103.    \n',
               '-        103.       102.       102.       102.       '
               '102.       101.       101.       101.       101.       '
               '100.       100.    \n',
               '-        100.    \n',
               '-   2    125.       124.       124.       124.       '
               '124.       123.       123.       123.       123.       '
               '122.       122.    \n',
               '-        122.       122.       121.       121.       '
               '121.       121.       120.       120.       120.       '
               '120.       119.    \n',
               '-        119.       119.       119.       118.       '
               '118.       118.       118.       117.       117.       '
               '117.       117.    \n',
               '-        116.       116.       116.       116.       '
               '115.       115.       115.       115.       114.       '
               '114.       114.    \n',
               '-        114.       113.       113.       113.       '
               '113.       112.       112.       112.       112.       '
               '111.       111.    \n',
               '-        111.       111.       110.       110.       '
               '110.       110.       109.       109.       109.       '
               '109.       108.    \n',
               '-        108.       108.       108.       107.       '
               '107.       107.       107.       106.       106.       '
               '106.       106.    \n',
               '-        105.       105.       105.       105.       '
               '104.       104.       104.       104.       103.       '
               '103.       103.    \n',
               '-        103.       102.       102.       102.       '
               '102.       101.       101.       101.       101.       '
               '100.       100.    \n',
               '-        100.    \n',
               '-   3    125.       124.       124.       124.       '
               '124.       123.       123.       123.       123.       '
               '122.       122.    \n',
               '-        122.       122.       121.       121.       '
               '121.       121.       120.       120.       120.       '
               '120.       119.    \n',
               '-        119.       119.       119.       118.       '
               '118.       118.       118.       117.       117.       '
               '117.       117.    \n',
               '-        116.       116.       116.       116.       '
               '115.       115.       115.       115.       114.       '
               '114.       114.    \n',
               '-        114.       113.       113.       113.       '
               '113.       112.       112.       112.       112.       '
               '111.       111.    \n',
               '-        111.       111.       110.       110.       '
               '110.       110.       109.       109.       109.       '
               '109.       108.    \n',
               '-        108.       108.       108.       107.       '
               '107.       107.       107.       106.       106.       '
               '106.       106.    \n',
               '-        105.       105.       105.       105.       '
               '104.       104.       104.       104.       103.       '
               '103.       103.    \n',
               '-        103.       102.       102.       102.       '
               '102.       101.       101.       101.       101.       '
               '100.       100.    \n',
               '-        100.    \n',
               '-   4    125.       124.       124.       124.       '
               '124.       123.       123.       123.       123.       '
               '122.       122.    \n',
               '-        122.       122.       121.       121.       '
               '121.       121.       120.       120.       120.       '
               '120.       119.    \n',
               '-        119.       119.       119.       118.       '
               '118.       118.       118.       117.       117.       '
               '117.       117.    \n',
               '-        116.       116.       116.       116.       '
               '115.       115.       115.       115.       114.       '
               '114.       114.    \n',
               '-        114.       113.       113.       113.       '
               '113.       112.       112.       112.       112.       '
               '111.       111.    \n',
               '-        111.       111.       110.       110.       '
               '110.       110.       109.       109.       109.       '
               '109.       108.    \n',
               '-        108.       108.       108.       107.       '
               '107.       107.       107.       106.       106.       '
               '106.       106.    \n',
               '-        105.       105.       105.       105.       '
               '104.       104.       104.       104.       103.       '
               '103.       103.    \n',
               '-        103.       102.       102.       102.       '
               '102.       101.       101.       101.       101.       '
               '100.       100.    \n',
               '-        100.    \n',
               '-   5    125.       124.       124.       124.       '
               '124.       123.       123.       123.       123.       '
               '122.       122.    \n',
               '-        122.       122.       121.       121.       '
               '121.       121.       120.       120.       120.       '
               '120.       119.    \n',
               '-        119.       119.       119.       118.       '
               '118.       118.       118.       117.       117.       '
               '117.       117.    \n',
               '-        116.       116.       116.       116.       '
               '115.       115.       115.       115.       114.       '
               '114.       114.    \n',
               '-        114.       113.       113.       113.       '
               '113.       112.       112.       112.       112.       '
               '111.       111.    \n',
               '-        111.       111.       110.       110.       '
               '110.       110.       109.       109.       109.       '
               '109.       108.    \n',
               '-        108.       108.       108.       107.       '
               '107.       107.       107.       106.       106.       '
               '106.       106.    \n',
               '-        105.       105.       105.       105.       '
               '104.       104.       104.       104.       103.       '
               '103.       103.    \n',
               '-        103.       102.       102.       102.       '
               '102.       101.       101.       101.       101.       '
               '100.       100.    \n',
               '-        100.    \n',
               '-   6    125.       124.       124.       124.       '
               '124.       123.       123.       123.       123.       '
               '122.       122.    \n',
               '-        122.       122.       121.       121.       '
               '121.       121.       120.       120.       120.       '
               '120.       119.    \n',
               '-        119.       119.       119.       118.       '
               '118.       118.       118.       117.       117.       '
               '117.       117.    \n',
               '-        116.       116.       116.       116.       '
               '115.       115.       115.       115.       114.       '
               '114.       114.    \n',
               '-        114.       113.       113.       113.       '
               '113.       112.       112.       112.       112.       '
               '111.       111.    \n',
               '-        111.       111.       110.       110.       '
               '110.       110.       109.       109.       109.       '
               '109.       108.    \n',
               '-        108.       108.       108.       107.       '
               '107.       107.       107.       106.       106.       '
               '106.       106.    \n',
               '-        105.       105.       105.       105.       '
               '104.       104.       104.       104.       103.       '
               '103.       103.    \n',
               '-        103.       102.       102.       102.       '
               '102.       101.       101.       101.       101.       '
               '100.       100.    \n',
               '-        100.    \n',
               '-   7    125.       124.       124.       124.       '
               '124.       123.       123.       123.       123.       '
               '122.       122.    \n',
               '-        122.       122.       121.       121.       '
               '121.       121.       120.       120.       120.       '
               '120.       119.    \n',
               '-        119.       119.       119.       118.       '
               '118.       118.       118.       117.       117.       '
               '117.       117.    \n',
               '-        116.       116.       116.       116.       '
               '115.       115.       115.       115.       114.       '
               '114.       114.    \n',
               '-        114.       113.       113.       113.       '
               '113.       112.       112.       112.       112.       '
               '111.       111.    \n',
               '-        111.       111.       110.       110.       '
               '110.       110.       109.       109.       109.       '
               '109.       108.    \n',
               '-        108.       108.       108.       107.       '
               '107.       107.       107.       106.       106.       '
               '106.       106.    \n',
               '-        105.       105.       105.       105.       '
               '104.       104.       104.       104.       103.       '
               '103.       103.    \n',
               '-        103.       102.       102.       102.       '
               '102.       101.       101.       101.       101.       '
               '100.       100.    \n',
               '-        100.    \n',
               '-\n',
               '-   MODEL LAYER BOTTOM EL. =   0.00000     FOR LAYER   1\n',
               '-\n',
               '-\n',
               '- STRESS PERIOD     LENGTH       TIME STEPS     MULTIPLIER FOR '
               'DELT    SS FLAG\n',
               '- '
               '----------------------------------------------------------------------------\n',
               '-        1         2592000.         30                    '
               '1.100         TR\n',
               '-        2         2592000.         30                    '
               '1.100         TR\n',
               '-        3         2592000.         30                    '
               '1.100         TR\n',
               '-        4         2592000.         30                    '
               '1.100         TR\n',
               '-        5         2592000.         30                    '
               '1.100         TR\n',
               '-        6         2592000.         30                    '
               '1.100         TR\n',
               '-        7         2592000.         30                    '
               '1.100         TR\n',
               '-        8         2592000.         30                    '
               '1.100         TR\n',
               '-        9         2592000.         30                    '
               '1.100         TR\n',
               '-       10         2592000.         30                    '
               '1.100         TR\n',
               '-       11         2592000.         30                    '
               '1.100         TR\n',
               '-       12         2592000.         30                    '
               '1.100         TR\n',
               '-       13         2592000.         30                    '
               '1.100         TR\n',
               '-       14         2592000.         30                    '
               '1.100         TR\n',
               '-       15         2592000.         30                    '
               '1.100         TR\n',
               '-       16         2592000.         30                    '
               '1.100         TR\n',
               '-       17         2592000.         30                    '
               '1.100         TR\n',
               '-       18         2592000.         30                    '
               '1.100         TR\n',
               '-       19         2592000.         30                    '
               '1.100         TR\n',
               '-       20         2592000.         30                    '
               '1.100         TR\n',
               '-       21         2592000.         30                    '
               '1.100         TR\n',
               '-       22         2592000.         30                    '
               '1.100         TR\n',
               '-       23         2592000.         30                    '
               '1.100         TR\n',
               '-       24         2592000.         30                    '
               '1.100         TR\n',
               '-       25         2592000.         30                    '
               '1.100         TR\n',
               '-       26         2592000.         30                    '
               '1.100         TR\n',
               '-       27         2592000.         30                    '
               '1.100         TR\n',
               '-       28         2592000.         30                    '
               '1.100         TR\n',
               '-       29         2592000.         30                    '
               '1.100         TR\n',
               '-       30         2592000.         30                    '
               '1.100         TR\n',
               '-       31         2592000.         30                    '
               '1.100         TR\n',
               '-       32         2592000.         30                    '
               '1.100         TR\n',
               '-       33         2592000.         30                    '
               '1.100         TR\n',
               '-       34         2592000.         30                    '
               '1.100         TR\n',
               '-       35         2592000.         30                    '
               '1.100         TR\n',
               '-       36         2592000.         30                    '
               '1.100         TR\n',
               '-       37         2592000.         30                    '
               '1.100         TR\n',
               '-       38         2592000.         30                    '
               '1.100         TR\n',
               '-       39         2592000.         30                    '
               '1.100         TR\n',
               '-       40         2592000.         30                    '
               '1.100         TR\n',
               '-       41         2592000.         30                    '
               '1.100         TR\n',
               '-       42         2592000.         30                    '
               '1.100         TR\n',
               '-       43         2592000.         30                    '
               '1.100         TR\n',
               '-       44         2592000.         30                    '
               '1.100         TR\n',
               '-       45         2592000.         30                    '
               '1.100         TR\n',
               '-       46         2592000.         30                    '
               '1.100         TR\n',
               '-       47         2592000.         30                    '
               '1.100         TR\n',
               '-       48         2592000.         30                    '
               '1.100         TR\n',
               '-       49         2592000.         30                    '
               '1.100         TR\n',
               '-       50         2592000.         30                    '
               '1.100         TR\n',
               '-\n',
               '- TRANSIENT SIMULATION\n',
               '-\n',
               '-\n',
               '-\n',
               '- \n',
               '- # BAS6 Package input file for hypothetical test '
               'simulation                      \n',
               '- # Test of SFR2 '
               'Package                                                          \n',
               '- THE FREE FORMAT OPTION HAS BEEN SELECTED\n',
               '-\n',
               '-\n',
               '-\n',
               '-                     BOUNDARY ARRAY FOR LAYER   1\n',
               '- READING ON UNIT   41 WITH FORMAT: (30I2)              \n',
               '-\n',
               '-      1 2 3 4 5 6 7 8 '
               '9101112131415161718192021222324252627282930313233343536373839404142434445464748495051525354555657585960\n',
               '-     '
               '61626364656667686970717273747576777879808182838485868788899091929394959697989100\n',
               '- '
               '............................................................................................................................\n',
               '-   1  1 1 1 1 1 1 1 1 1 1 1 1 1 1 1 1 1 1 1 1 1 1 1 1 1 1 1 1 '
               '1 1 1 1 1 1 1 1 1 1 1 1 1 1 1 1 1 1 1 1 1 1 1 1 1 1 1 1 1 1 1 '
               '1\n',
               '-      1 1 1 1 1 1 1 1 1 1 1 1 1 1 1 1 1 1 1 1 1 1 1 1 1 1 1 1 '
               '1 1 1 1 1 1 1 1 1 1 1 1\n',
               '-   2  1 1 1 1 1 1 1 1 1 1 1 1 1 1 1 1 1 1 1 1 1 1 1 1 1 1 1 1 '
               '1 1 1 1 1 1 1 1 1 1 1 1 1 1 1 1 1 1 1 1 1 1 1 1 1 1 1 1 1 1 1 '
               '1\n',
               '-      1 1 1 1 1 1 1 1 1 1 1 1 1 1 1 1 1 1 1 1 1 1 1 1 1 1 1 1 '
               '1 1 1 1 1 1 1 1 1 1 1 1\n',
               '-   3  1 1 1 1 1 1 1 1 1 1 1 1 1 1 1 1 1 1 1 1 1 1 1 1 1 1 1 1 '
               '1 1 1 1 1 1 1 1 1 1 1 1 1 1 1 1 1 1 1 1 1 1 1 1 1 1 1 1 1 1 1 '
               '1\n',
               '-      1 1 1 1 1 1 1 1 1 1 1 1 1 1 1 1 1 1 1 1 1 1 1 1 1 1 1 1 '
               '1 1 1 1 1 1 1 1 1 1 1 1\n',
               '-   4  1 1 1 1 1 1 1 1 1 1 1 1 1 1 1 1 1 1 1 1 1 1 1 1 1 1 1 1 '
               '1 1 1 1 1 1 1 1 1 1 1 1 1 1 1 1 1 1 1 1 1 1 1 1 1 1 1 1 1 1 1 '
               '1\n',
               '-      1 1 1 1 1 1 1 1 1 1 1 1 1 1 1 1 1 1 1 1 1 1 1 1 1 1 1 1 '
               '1 1 1 1 1 1 1 1 1 1 1 1\n',
               '-   5  1 1 1 1 1 1 1 1 1 1 1 1 1 1 1 1 1 1 1 1 1 1 1 1 1 1 1 1 '
               '1 1 1 1 1 1 1 1 1 1 1 1 1 1 1 1 1 1 1 1 1 1 1 1 1 1 1 1 1 1 1 '
               '1\n',
               '-      1 1 1 1 1 1 1 1 1 1 1 1 1 1 1 1 1 1 1 1 1 1 1 1 1 1 1 1 '
               '1 1 1 1 1 1 1 1 1 1 1 1\n',
               '-   6  1 1 1 1 1 1 1 1 1 1 1 1 1 1 1 1 1 1 1 1 1 1 1 1 1 1 1 1 '
               '1 1 1 1 1 1 1 1 1 1 1 1 1 1 1 1 1 1 1 1 1 1 1 1 1 1 1 1 1 1 1 '
               '1\n',
               '-      1 1 1 1 1 1 1 1 1 1 1 1 1 1 1 1 1 1 1 1 1 1 1 1 1 1 1 1 '
               '1 1 1 1 1 1 1 1 1 1 1 1\n',
               '-   7  1 1 1 1 1 1 1 1 1 1 1 1 1 1 1 1 1 1 1 1 1 1 1 1 1 1 1 1 '
               '1 1 1 1 1 1 1 1 1 1 1 1 1 1 1 1 1 1 1 1 1 1 1 1 1 1 1 1 1 1 1 '
               '1\n',
               '-      1 1 1 1 1 1 1 1 1 1 1 1 1 1 1 1 1 1 1 1 1 1 1 1 1 1 1 1 '
               '1 1 1 1 1 1 1 1 1 1 1 1\n',
               '-\n',
               '- AQUIFER HEAD WILL BE SET TO  -6999.0     AT ALL NO-FLOW '
               'NODES (IBOUND=0).\n',
               '-\n',
               '-             INITIAL HEAD =   104.000     FOR LAYER   1\n',
               '- # OC input file for hypothetical test simulation\n',
               '- # Test of SFR2 Package\n',
               '-\n',
               '- OUTPUT CONTROL IS SPECIFIED ONLY AT TIME STEPS FOR WHICH '
               'OUTPUT IS DESIRED\n',
               '- COMPACT CELL-BY-CELL BUDGET FILES WILL BE WRITTEN\n',
               '- HEAD PRINT FORMAT CODE IS  14    DRAWDOWN PRINT FORMAT CODE '
               'IS   0\n',
               '- HEADS WILL BE SAVED ON UNIT    0    DRAWDOWNS WILL BE SAVED '
               'ON UNIT    0\n',
               '-\n',
               '- LPF -- LAYER-PROPERTY FLOW PACKAGE, VERSION 7, 5/2/2005\n',
               '-         INPUT READ FROM UNIT   42\n',
               '- # LPF Package input file for hypothetical test simulation\n',
               '- # Test of SFR2 Package\n',
               '- HEAD AT CELLS THAT CONVERT TO DRY=  -999.00    \n',
               '- No named parameters\n',
               '-\n',
               '-   LAYER FLAGS:\n',
               '- LAYER       LAYTYP        LAYAVG         CHANI        '
               'LAYVKA        LAYWET\n',
               '- '
               '---------------------------------------------------------------------------\n',
               '-    1             1             0     1.000E+00             '
               '0             0\n',
               '-\n',
               '-   INTERPRETATION OF LAYER FLAGS:\n',
               '-                        INTERBLOCK     HORIZONTAL    DATA '
               'IN\n',
               '-         LAYER TYPE   TRANSMISSIVITY   ANISOTROPY   ARRAY '
               'VKA   WETTABILITY\n',
               '- LAYER      (LAYTYP)      (LAYAVG)       (CHANI)      '
               '(LAYVKA)      (LAYWET)\n',
               '- '
               '---------------------------------------------------------------------------\n',
               '-    1   CONVERTIBLE      HARMONIC     1.000E+00    VERTICAL '
               'K  NON-WETTABLE\n',
               '-\n',
               '- WETTING CAPABILITY IS NOT ACTIVE IN ANY LAYER\n',
               '-\n',
               '-    HYD. COND. ALONG ROWS =  8.000000E-04 FOR LAYER   1\n',
               '-\n',
               '-      VERTICAL HYD. COND. =  6.000000E-06 FOR LAYER   1\n',
               '-\n',
               '-         SPECIFIC STORAGE =   0.00000     FOR LAYER   1\n',
               '-\n',
               '-           SPECIFIC YIELD =  0.200000     FOR LAYER   1\n',
               '-\n',
               '- GHB -- GENERAL-HEAD BOUNDARY PACKAGE, VERSION 7, 5/2/2005\n',
               '-         INPUT READ FROM UNIT   15\n',
               '- # GHB Package input file for hypothetical test simulation\n',
               '- # Test of SFR2 Package\n',
               '- No named parameters\n',
               '- MAXIMUM OF      7 ACTIVE GHB CELLS AT ONE TIME\n',
               '- CELL-BY-CELL FLOWS WILL BE PRINTED WHEN ICBCFL NOT 0\n',
               '-\n',
               '-\n',
               '-     0 GHB parameters\n',
               '-\n',
               '- SFR7 -- STREAMFLOW ROUTING PACKAGE, VERSION 1.0.8, '
               '2017-02-01\n',
               '-         INPUT READ FROM UNIT  45\n',
               '- # SFR2 Package input file for hypothetical test simulation\n',
               '- # Test of SFR2 Package; revised October 1, 2011\n',
               '- # Example for using keyword options\n',
               '- # Stress period inflow rates are now specified in '
               'testsfr2_tab.tab TRANSROUTE\n',
               '- No named parameters\n',
               '-\n',
               '-          1 Specified inflow files will be read with a '
               'maximum of         50 row entries per file\n',
               '-\n',
               '- END PROCESSING SFR2 OPTIONS\n',
               '-\n',
               '-\n',
               '- NUMBER OF STREAM REACHES IS  100\n',
               '-\n',
               '- NUMBER OF STREAM SEGMENTS IS    1\n',
               '-\n',
               '- NUMBER OF STREAM PARAMETERS IS    0\n',
               '-\n',
               '- NUMBER OF STREAM SEGMENTS DEFINED USING PARAMETERS '
               'IS              0\n',
               '-\n',
               '- MAXIMUM ERROR FOR STREAM LEAKAGE RATES IS  1.00E-05\n',
               '-\n',
               '- CONSTANT FOR MANNINGS EQUATION IS  1.0000E+00\n',
               '-\n',
               '-\n',
               '-\n',
               '-\n',
               '-\n',
               '- OPTION FOR UNSATURATED FLOW BENEATH STREAMBEDS IS ACTIVE \n',
               '-\n',
               '-\n',
               '-\n',
               '-\n',
               '-   STREAM NETWORK DESCRIPTION: \n',
               '-\n',
               '-   LAYER    ROW    COL   SEGMENT   REACH     LENGTH\n',
               '-                          NUMBER   NUMBER    IN '
               'CELL        \n',
               '-   --------------------------------------------------\n',
               '-      1      4      1       1        1    2.0000E+02\n',
               '-      1      4      2       1        2    2.0000E+02\n',
               '-      1      4      3       1        3    2.0000E+02\n',
               '-      1      4      4       1        4    2.0000E+02\n',
               '-      1      4      5       1        5    2.0000E+02\n',
               '-      1      4      6       1        6    2.0000E+02\n',
               '-      1      4      7       1        7    2.0000E+02\n',
               '-      1      4      8       1        8    2.0000E+02\n',
               '-      1      4      9       1        9    2.0000E+02\n',
               '-      1      4     10       1       10    2.0000E+02\n',
               '-      1      4     11       1       11    2.0000E+02\n',
               '-      1      4     12       1       12    2.0000E+02\n',
               '-      1      4     13       1       13    2.0000E+02\n',
               '-      1      4     14       1       14    2.0000E+02\n',
               '-      1      4     15       1       15    2.0000E+02\n',
               '-      1      4     16       1       16    2.0000E+02\n',
               '-      1      4     17       1       17    2.0000E+02\n',
               '-      1      4     18       1       18    2.0000E+02\n',
               '-      1      4     19       1       19    2.0000E+02\n',
               '-      1      4     20       1       20    2.0000E+02\n',
               '-      1      4     21       1       21    2.0000E+02\n',
               '-      1      4     22       1       22    2.0000E+02\n',
               '-      1      4     23       1       23    2.0000E+02\n',
               '-      1      4     24       1       24    2.0000E+02\n',
               '-      1      4     25       1       25    2.0000E+02\n',
               '-      1      4     26       1       26    2.0000E+02\n',
               '-      1      4     27       1       27    2.0000E+02\n',
               '-      1      4     28       1       28    2.0000E+02\n',
               '-      1      4     29       1       29    2.0000E+02\n',
               '-      1      4     30       1       30    2.0000E+02\n',
               '-      1      4     31       1       31    2.0000E+02\n',
               '-      1      4     32       1       32    2.0000E+02\n',
               '-      1      4     33       1       33    2.0000E+02\n',
               '-      1      4     34       1       34    2.0000E+02\n',
               '-      1      4     35       1       35    2.0000E+02\n',
               '-      1      4     36       1       36    2.0000E+02\n',
               '-      1      4     37       1       37    2.0000E+02\n',
               '-      1      4     38       1       38    2.0000E+02\n',
               '-      1      4     39       1       39    2.0000E+02\n',
               '-      1      4     40       1       40    2.0000E+02\n',
               '-      1      4     41       1       41    2.0000E+02\n',
               '-      1      4     42       1       42    2.0000E+02\n',
               '-      1      4     43       1       43    2.0000E+02\n',
               '-      1      4     44       1       44    2.0000E+02\n',
               '-      1      4     45       1       45    2.0000E+02\n',
               '-      1      4     46       1       46    2.0000E+02\n',
               '-      1      4     47       1       47    2.0000E+02\n',
               '-      1      4     48       1       48    2.0000E+02\n',
               '-      1      4     49       1       49    2.0000E+02\n',
               '-      1      4     50       1       50    2.0000E+02\n',
               '-      1      4     51       1       51    2.0000E+02\n',
               '-      1      4     52       1       52    2.0000E+02\n',
               '-      1      4     53       1       53    2.0000E+02\n',
               '-      1      4     54       1       54    2.0000E+02\n',
               '-      1      4     55       1       55    2.0000E+02\n',
               '-      1      4     56       1       56    2.0000E+02\n',
               '-      1      4     57       1       57    2.0000E+02\n',
               '-      1      4     58       1       58    2.0000E+02\n',
               '-      1      4     59       1       59    2.0000E+02\n',
               '-      1      4     60       1       60    2.0000E+02\n',
               '-      1      4     61       1       61    2.0000E+02\n',
               '-      1      4     62       1       62    2.0000E+02\n',
               '-      1      4     63       1       63    2.0000E+02\n',
               '-      1      4     64       1       64    2.0000E+02\n',
               '-      1      4     65       1       65    2.0000E+02\n',
               '-      1      4     66       1       66    2.0000E+02\n',
               '-      1      4     67       1       67    2.0000E+02\n',
               '-      1      4     68       1       68    2.0000E+02\n',
               '-      1      4     69       1       69    2.0000E+02\n',
               '-      1      4     70       1       70    2.0000E+02\n',
               '-      1      4     71       1       71    2.0000E+02\n',
               '-      1      4     72       1       72    2.0000E+02\n',
               '-      1      4     73       1       73    2.0000E+02\n',
               '-      1      4     74       1       74    2.0000E+02\n',
               '-      1      4     75       1       75    2.0000E+02\n',
               '-      1      4     76       1       76    2.0000E+02\n',
               '-      1      4     77       1       77    2.0000E+02\n',
               '-      1      4     78       1       78    2.0000E+02\n',
               '-      1      4     79       1       79    2.0000E+02\n',
               '-      1      4     80       1       80    2.0000E+02\n',
               '-      1      4     81       1       81    2.0000E+02\n',
               '-      1      4     82       1       82    2.0000E+02\n',
               '-      1      4     83       1       83    2.0000E+02\n',
               '-      1      4     84       1       84    2.0000E+02\n',
               '-      1      4     85       1       85    2.0000E+02\n',
               '-      1      4     86       1       86    2.0000E+02\n',
               '-      1      4     87       1       87    2.0000E+02\n',
               '-      1      4     88       1       88    2.0000E+02\n',
               '-      1      4     89       1       89    2.0000E+02\n',
               '-      1      4     90       1       90    2.0000E+02\n',
               '-      1      4     91       1       91    2.0000E+02\n',
               '-      1      4     92       1       92    2.0000E+02\n',
               '-      1      4     93       1       93    2.0000E+02\n',
               '-      1      4     94       1       94    2.0000E+02\n',
               '-      1      4     95       1       95    2.0000E+02\n',
               '-      1      4     96       1       96    2.0000E+02\n',
               '-      1      4     97       1       97    2.0000E+02\n',
               '-      1      4     98       1       98    2.0000E+02\n',
               '-      1      4     99       1       99    2.0000E+02\n',
               '-      1      4    100       1      100    2.0000E+02\n',
               '- INITIAL WATER CONTENT IS LESS THAN RESIDUAL WATER CONTENT '
               'FOR STREAM SEGMENT:     1 REACH:     1 INITIAL WATER CONTENT '
               'RESET TO RESIDUAL OF  0.10000E+00\n',
               '- INITIAL WATER CONTENT IS LESS THAN RESIDUAL WATER CONTENT '
               'FOR STREAM SEGMENT:     1 REACH:     2 INITIAL WATER CONTENT '
               'RESET TO RESIDUAL OF  0.10000E+00\n',
               '- INITIAL WATER CONTENT IS LESS THAN RESIDUAL WATER CONTENT '
               'FOR STREAM SEGMENT:     1 REACH:     3 INITIAL WATER CONTENT '
               'RESET TO RESIDUAL OF  0.10000E+00\n',
               '- INITIAL WATER CONTENT IS LESS THAN RESIDUAL WATER CONTENT '
               'FOR STREAM SEGMENT:     1 REACH:     4 INITIAL WATER CONTENT '
               'RESET TO RESIDUAL OF  0.10000E+00\n',
               '- INITIAL WATER CONTENT IS LESS THAN RESIDUAL WATER CONTENT '
               'FOR STREAM SEGMENT:     1 REACH:     5 INITIAL WATER CONTENT '
               'RESET TO RESIDUAL OF  0.10000E+00\n',
               '- INITIAL WATER CONTENT IS LESS THAN RESIDUAL WATER CONTENT '
               'FOR STREAM SEGMENT:     1 REACH:     6 INITIAL WATER CONTENT '
               'RESET TO RESIDUAL OF  0.10000E+00\n',
               '- INITIAL WATER CONTENT IS LESS THAN RESIDUAL WATER CONTENT '
               'FOR STREAM SEGMENT:     1 REACH:     7 INITIAL WATER CONTENT '
               'RESET TO RESIDUAL OF  0.10000E+00\n',
               '- INITIAL WATER CONTENT IS LESS THAN RESIDUAL WATER CONTENT '
               'FOR STREAM SEGMENT:     1 REACH:     8 INITIAL WATER CONTENT '
               'RESET TO RESIDUAL OF  0.10000E+00\n',
               '- INITIAL WATER CONTENT IS LESS THAN RESIDUAL WATER CONTENT '
               'FOR STREAM SEGMENT:     1 REACH:     9 INITIAL WATER CONTENT '
               'RESET TO RESIDUAL OF  0.10000E+00\n',
               '- INITIAL WATER CONTENT IS LESS THAN RESIDUAL WATER CONTENT '
               'FOR STREAM SEGMENT:     1 REACH:    10 INITIAL WATER CONTENT '
               'RESET TO RESIDUAL OF  0.10000E+00\n',
               '- INITIAL WATER CONTENT IS LESS THAN RESIDUAL WATER CONTENT '
               'FOR STREAM SEGMENT:     1 REACH:    11 INITIAL WATER CONTENT '
               'RESET TO RESIDUAL OF  0.10000E+00\n',
               '- INITIAL WATER CONTENT IS LESS THAN RESIDUAL WATER CONTENT '
               'FOR STREAM SEGMENT:     1 REACH:    12 INITIAL WATER CONTENT '
               'RESET TO RESIDUAL OF  0.10000E+00\n',
               '- INITIAL WATER CONTENT IS LESS THAN RESIDUAL WATER CONTENT '
               'FOR STREAM SEGMENT:     1 REACH:    13 INITIAL WATER CONTENT '
               'RESET TO RESIDUAL OF  0.10000E+00\n',
               '- INITIAL WATER CONTENT IS LESS THAN RESIDUAL WATER CONTENT '
               'FOR STREAM SEGMENT:     1 REACH:    14 INITIAL WATER CONTENT '
               'RESET TO RESIDUAL OF  0.10000E+00\n',
               '- INITIAL WATER CONTENT IS LESS THAN RESIDUAL WATER CONTENT '
               'FOR STREAM SEGMENT:     1 REACH:    15 INITIAL WATER CONTENT '
               'RESET TO RESIDUAL OF  0.10000E+00\n',
               '- INITIAL WATER CONTENT IS LESS THAN RESIDUAL WATER CONTENT '
               'FOR STREAM SEGMENT:     1 REACH:    16 INITIAL WATER CONTENT '
               'RESET TO RESIDUAL OF  0.10000E+00\n',
               '- INITIAL WATER CONTENT IS LESS THAN RESIDUAL WATER CONTENT '
               'FOR STREAM SEGMENT:     1 REACH:    17 INITIAL WATER CONTENT '
               'RESET TO RESIDUAL OF  0.10000E+00\n',
               '- INITIAL WATER CONTENT IS LESS THAN RESIDUAL WATER CONTENT '
               'FOR STREAM SEGMENT:     1 REACH:    18 INITIAL WATER CONTENT '
               'RESET TO RESIDUAL OF  0.10000E+00\n',
               '- INITIAL WATER CONTENT IS LESS THAN RESIDUAL WATER CONTENT '
               'FOR STREAM SEGMENT:     1 REACH:    19 INITIAL WATER CONTENT '
               'RESET TO RESIDUAL OF  0.10000E+00\n',
               '- INITIAL WATER CONTENT IS LESS THAN RESIDUAL WATER CONTENT '
               'FOR STREAM SEGMENT:     1 REACH:    20 INITIAL WATER CONTENT '
               'RESET TO RESIDUAL OF  0.10000E+00\n',
               '- INITIAL WATER CONTENT IS LESS THAN RESIDUAL WATER CONTENT '
               'FOR STREAM SEGMENT:     1 REACH:    21 INITIAL WATER CONTENT '
               'RESET TO RESIDUAL OF  0.10000E+00\n',
               '- INITIAL WATER CONTENT IS LESS THAN RESIDUAL WATER CONTENT '
               'FOR STREAM SEGMENT:     1 REACH:    22 INITIAL WATER CONTENT '
               'RESET TO RESIDUAL OF  0.10000E+00\n',
               '- INITIAL WATER CONTENT IS LESS THAN RESIDUAL WATER CONTENT '
               'FOR STREAM SEGMENT:     1 REACH:    23 INITIAL WATER CONTENT '
               'RESET TO RESIDUAL OF  0.10000E+00\n',
               '- INITIAL WATER CONTENT IS LESS THAN RESIDUAL WATER CONTENT '
               'FOR STREAM SEGMENT:     1 REACH:    24 INITIAL WATER CONTENT '
               'RESET TO RESIDUAL OF  0.10000E+00\n',
               '- INITIAL WATER CONTENT IS LESS THAN RESIDUAL WATER CONTENT '
               'FOR STREAM SEGMENT:     1 REACH:    25 INITIAL WATER CONTENT '
               'RESET TO RESIDUAL OF  0.10000E+00\n',
               '- INITIAL WATER CONTENT IS LESS THAN RESIDUAL WATER CONTENT '
               'FOR STREAM SEGMENT:     1 REACH:    26 INITIAL WATER CONTENT '
               'RESET TO RESIDUAL OF  0.10000E+00\n',
               '- INITIAL WATER CONTENT IS LESS THAN RESIDUAL WATER CONTENT '
               'FOR STREAM SEGMENT:     1 REACH:    27 INITIAL WATER CONTENT '
               'RESET TO RESIDUAL OF  0.10000E+00\n',
               '- INITIAL WATER CONTENT IS LESS THAN RESIDUAL WATER CONTENT '
               'FOR STREAM SEGMENT:     1 REACH:    28 INITIAL WATER CONTENT '
               'RESET TO RESIDUAL OF  0.10000E+00\n',
               '- INITIAL WATER CONTENT IS LESS THAN RESIDUAL WATER CONTENT '
               'FOR STREAM SEGMENT:     1 REACH:    29 INITIAL WATER CONTENT '
               'RESET TO RESIDUAL OF  0.10000E+00\n',
               '- INITIAL WATER CONTENT IS LESS THAN RESIDUAL WATER CONTENT '
               'FOR STREAM SEGMENT:     1 REACH:    30 INITIAL WATER CONTENT '
               'RESET TO RESIDUAL OF  0.10000E+00\n',
               '- INITIAL WATER CONTENT IS LESS THAN RESIDUAL WATER CONTENT '
               'FOR STREAM SEGMENT:     1 REACH:    31 INITIAL WATER CONTENT '
               'RESET TO RESIDUAL OF  0.10000E+00\n',
               '- INITIAL WATER CONTENT IS LESS THAN RESIDUAL WATER CONTENT '
               'FOR STREAM SEGMENT:     1 REACH:    32 INITIAL WATER CONTENT '
               'RESET TO RESIDUAL OF  0.10000E+00\n',
               '- INITIAL WATER CONTENT IS LESS THAN RESIDUAL WATER CONTENT '
               'FOR STREAM SEGMENT:     1 REACH:    33 INITIAL WATER CONTENT '
               'RESET TO RESIDUAL OF  0.10000E+00\n',
               '- INITIAL WATER CONTENT IS LESS THAN RESIDUAL WATER CONTENT '
               'FOR STREAM SEGMENT:     1 REACH:    34 INITIAL WATER CONTENT '
               'RESET TO RESIDUAL OF  0.10000E+00\n',
               '- INITIAL WATER CONTENT IS LESS THAN RESIDUAL WATER CONTENT '
               'FOR STREAM SEGMENT:     1 REACH:    35 INITIAL WATER CONTENT '
               'RESET TO RESIDUAL OF  0.10000E+00\n',
               '- INITIAL WATER CONTENT IS LESS THAN RESIDUAL WATER CONTENT '
               'FOR STREAM SEGMENT:     1 REACH:    36 INITIAL WATER CONTENT '
               'RESET TO RESIDUAL OF  0.10000E+00\n',
               '- INITIAL WATER CONTENT IS LESS THAN RESIDUAL WATER CONTENT '
               'FOR STREAM SEGMENT:     1 REACH:    37 INITIAL WATER CONTENT '
               'RESET TO RESIDUAL OF  0.10000E+00\n',
               '- INITIAL WATER CONTENT IS LESS THAN RESIDUAL WATER CONTENT '
               'FOR STREAM SEGMENT:     1 REACH:    38 INITIAL WATER CONTENT '
               'RESET TO RESIDUAL OF  0.10000E+00\n',
               '- INITIAL WATER CONTENT IS LESS THAN RESIDUAL WATER CONTENT '
               'FOR STREAM SEGMENT:     1 REACH:    39 INITIAL WATER CONTENT '
               'RESET TO RESIDUAL OF  0.10000E+00\n',
               '- INITIAL WATER CONTENT IS LESS THAN RESIDUAL WATER CONTENT '
               'FOR STREAM SEGMENT:     1 REACH:    40 INITIAL WATER CONTENT '
               'RESET TO RESIDUAL OF  0.10000E+00\n',
               '- INITIAL WATER CONTENT IS LESS THAN RESIDUAL WATER CONTENT '
               'FOR STREAM SEGMENT:     1 REACH:    41 INITIAL WATER CONTENT '
               'RESET TO RESIDUAL OF  0.10000E+00\n',
               '- INITIAL WATER CONTENT IS LESS THAN RESIDUAL WATER CONTENT '
               'FOR STREAM SEGMENT:     1 REACH:    42 INITIAL WATER CONTENT '
               'RESET TO RESIDUAL OF  0.10000E+00\n',
               '- INITIAL WATER CONTENT IS LESS THAN RESIDUAL WATER CONTENT '
               'FOR STREAM SEGMENT:     1 REACH:    43 INITIAL WATER CONTENT '
               'RESET TO RESIDUAL OF  0.10000E+00\n',
               '- INITIAL WATER CONTENT IS LESS THAN RESIDUAL WATER CONTENT '
               'FOR STREAM SEGMENT:     1 REACH:    44 INITIAL WATER CONTENT '
               'RESET TO RESIDUAL OF  0.10000E+00\n',
               '- INITIAL WATER CONTENT IS LESS THAN RESIDUAL WATER CONTENT '
               'FOR STREAM SEGMENT:     1 REACH:    45 INITIAL WATER CONTENT '
               'RESET TO RESIDUAL OF  0.10000E+00\n',
               '- INITIAL WATER CONTENT IS LESS THAN RESIDUAL WATER CONTENT '
               'FOR STREAM SEGMENT:     1 REACH:    46 INITIAL WATER CONTENT '
               'RESET TO RESIDUAL OF  0.10000E+00\n',
               '- INITIAL WATER CONTENT IS LESS THAN RESIDUAL WATER CONTENT '
               'FOR STREAM SEGMENT:     1 REACH:    47 INITIAL WATER CONTENT '
               'RESET TO RESIDUAL OF  0.10000E+00\n',
               '- INITIAL WATER CONTENT IS LESS THAN RESIDUAL WATER CONTENT '
               'FOR STREAM SEGMENT:     1 REACH:    48 INITIAL WATER CONTENT '
               'RESET TO RESIDUAL OF  0.10000E+00\n',
               '- INITIAL WATER CONTENT IS LESS THAN RESIDUAL WATER CONTENT '
               'FOR STREAM SEGMENT:     1 REACH:    49 INITIAL WATER CONTENT '
               'RESET TO RESIDUAL OF  0.10000E+00\n',
               '- INITIAL WATER CONTENT IS LESS THAN RESIDUAL WATER CONTENT '
               'FOR STREAM SEGMENT:     1 REACH:    50 INITIAL WATER CONTENT '
               'RESET TO RESIDUAL OF  0.10000E+00\n',
               '- INITIAL WATER CONTENT IS LESS THAN RESIDUAL WATER CONTENT '
               'FOR STREAM SEGMENT:     1 REACH:    51 INITIAL WATER CONTENT '
               'RESET TO RESIDUAL OF  0.10000E+00\n',
               '- INITIAL WATER CONTENT IS LESS THAN RESIDUAL WATER CONTENT '
               'FOR STREAM SEGMENT:     1 REACH:    52 INITIAL WATER CONTENT '
               'RESET TO RESIDUAL OF  0.10000E+00\n',
               '- INITIAL WATER CONTENT IS LESS THAN RESIDUAL WATER CONTENT '
               'FOR STREAM SEGMENT:     1 REACH:    53 INITIAL WATER CONTENT '
               'RESET TO RESIDUAL OF  0.10000E+00\n',
               '- INITIAL WATER CONTENT IS LESS THAN RESIDUAL WATER CONTENT '
               'FOR STREAM SEGMENT:     1 REACH:    54 INITIAL WATER CONTENT '
               'RESET TO RESIDUAL OF  0.10000E+00\n',
               '- INITIAL WATER CONTENT IS LESS THAN RESIDUAL WATER CONTENT '
               'FOR STREAM SEGMENT:     1 REACH:    55 INITIAL WATER CONTENT '
               'RESET TO RESIDUAL OF  0.10000E+00\n',
               '- INITIAL WATER CONTENT IS LESS THAN RESIDUAL WATER CONTENT '
               'FOR STREAM SEGMENT:     1 REACH:    56 INITIAL WATER CONTENT '
               'RESET TO RESIDUAL OF  0.10000E+00\n',
               '- INITIAL WATER CONTENT IS LESS THAN RESIDUAL WATER CONTENT '
               'FOR STREAM SEGMENT:     1 REACH:    57 INITIAL WATER CONTENT '
               'RESET TO RESIDUAL OF  0.10000E+00\n',
               '- INITIAL WATER CONTENT IS LESS THAN RESIDUAL WATER CONTENT '
               'FOR STREAM SEGMENT:     1 REACH:    58 INITIAL WATER CONTENT '
               'RESET TO RESIDUAL OF  0.10000E+00\n',
               '- INITIAL WATER CONTENT IS LESS THAN RESIDUAL WATER CONTENT '
               'FOR STREAM SEGMENT:     1 REACH:    59 INITIAL WATER CONTENT '
               'RESET TO RESIDUAL OF  0.10000E+00\n',
               '- INITIAL WATER CONTENT IS LESS THAN RESIDUAL WATER CONTENT '
               'FOR STREAM SEGMENT:     1 REACH:    60 INITIAL WATER CONTENT '
               'RESET TO RESIDUAL OF  0.10000E+00\n',
               '- INITIAL WATER CONTENT IS LESS THAN RESIDUAL WATER CONTENT '
               'FOR STREAM SEGMENT:     1 REACH:    61 INITIAL WATER CONTENT '
               'RESET TO RESIDUAL OF  0.10000E+00\n',
               '- INITIAL WATER CONTENT IS LESS THAN RESIDUAL WATER CONTENT '
               'FOR STREAM SEGMENT:     1 REACH:    62 INITIAL WATER CONTENT '
               'RESET TO RESIDUAL OF  0.10000E+00\n',
               '- INITIAL WATER CONTENT IS LESS THAN RESIDUAL WATER CONTENT '
               'FOR STREAM SEGMENT:     1 REACH:    63 INITIAL WATER CONTENT '
               'RESET TO RESIDUAL OF  0.10000E+00\n',
               '- INITIAL WATER CONTENT IS LESS THAN RESIDUAL WATER CONTENT '
               'FOR STREAM SEGMENT:     1 REACH:    64 INITIAL WATER CONTENT '
               'RESET TO RESIDUAL OF  0.10000E+00\n',
               '- INITIAL WATER CONTENT IS LESS THAN RESIDUAL WATER CONTENT '
               'FOR STREAM SEGMENT:     1 REACH:    65 INITIAL WATER CONTENT '
               'RESET TO RESIDUAL OF  0.10000E+00\n',
               '- INITIAL WATER CONTENT IS LESS THAN RESIDUAL WATER CONTENT '
               'FOR STREAM SEGMENT:     1 REACH:    66 INITIAL WATER CONTENT '
               'RESET TO RESIDUAL OF  0.10000E+00\n',
               '- INITIAL WATER CONTENT IS LESS THAN RESIDUAL WATER CONTENT '
               'FOR STREAM SEGMENT:     1 REACH:    67 INITIAL WATER CONTENT '
               'RESET TO RESIDUAL OF  0.10000E+00\n',
               '- INITIAL WATER CONTENT IS LESS THAN RESIDUAL WATER CONTENT '
               'FOR STREAM SEGMENT:     1 REACH:    68 INITIAL WATER CONTENT '
               'RESET TO RESIDUAL OF  0.10000E+00\n',
               '- INITIAL WATER CONTENT IS LESS THAN RESIDUAL WATER CONTENT '
               'FOR STREAM SEGMENT:     1 REACH:    69 INITIAL WATER CONTENT '
               'RESET TO RESIDUAL OF  0.10000E+00\n',
               '- INITIAL WATER CONTENT IS LESS THAN RESIDUAL WATER CONTENT '
               'FOR STREAM SEGMENT:     1 REACH:    70 INITIAL WATER CONTENT '
               'RESET TO RESIDUAL OF  0.10000E+00\n',
               '- INITIAL WATER CONTENT IS LESS THAN RESIDUAL WATER CONTENT '
               'FOR STREAM SEGMENT:     1 REACH:    71 INITIAL WATER CONTENT '
               'RESET TO RESIDUAL OF  0.10000E+00\n',
               '- INITIAL WATER CONTENT IS LESS THAN RESIDUAL WATER CONTENT '
               'FOR STREAM SEGMENT:     1 REACH:    72 INITIAL WATER CONTENT '
               'RESET TO RESIDUAL OF  0.10000E+00\n',
               '- INITIAL WATER CONTENT IS LESS THAN RESIDUAL WATER CONTENT '
               'FOR STREAM SEGMENT:     1 REACH:    73 INITIAL WATER CONTENT '
               'RESET TO RESIDUAL OF  0.10000E+00\n',
               '- INITIAL WATER CONTENT IS LESS THAN RESIDUAL WATER CONTENT '
               'FOR STREAM SEGMENT:     1 REACH:    74 INITIAL WATER CONTENT '
               'RESET TO RESIDUAL OF  0.10000E+00\n',
               '- INITIAL WATER CONTENT IS LESS THAN RESIDUAL WATER CONTENT '
               'FOR STREAM SEGMENT:     1 REACH:    75 INITIAL WATER CONTENT '
               'RESET TO RESIDUAL OF  0.10000E+00\n',
               '- INITIAL WATER CONTENT IS LESS THAN RESIDUAL WATER CONTENT '
               'FOR STREAM SEGMENT:     1 REACH:    76 INITIAL WATER CONTENT '
               'RESET TO RESIDUAL OF  0.10000E+00\n',
               '- INITIAL WATER CONTENT IS LESS THAN RESIDUAL WATER CONTENT '
               'FOR STREAM SEGMENT:     1 REACH:    77 INITIAL WATER CONTENT '
               'RESET TO RESIDUAL OF  0.10000E+00\n',
               '- INITIAL WATER CONTENT IS LESS THAN RESIDUAL WATER CONTENT '
               'FOR STREAM SEGMENT:     1 REACH:    78 INITIAL WATER CONTENT '
               'RESET TO RESIDUAL OF  0.10000E+00\n',
               '- INITIAL WATER CONTENT IS LESS THAN RESIDUAL WATER CONTENT '
               'FOR STREAM SEGMENT:     1 REACH:    79 INITIAL WATER CONTENT '
               'RESET TO RESIDUAL OF  0.10000E+00\n',
               '- INITIAL WATER CONTENT IS LESS THAN RESIDUAL WATER CONTENT '
               'FOR STREAM SEGMENT:     1 REACH:    80 INITIAL WATER CONTENT '
               'RESET TO RESIDUAL OF  0.10000E+00\n',
               '- INITIAL WATER CONTENT IS LESS THAN RESIDUAL WATER CONTENT '
               'FOR STREAM SEGMENT:     1 REACH:    81 INITIAL WATER CONTENT '
               'RESET TO RESIDUAL OF  0.10000E+00\n',
               '- INITIAL WATER CONTENT IS LESS THAN RESIDUAL WATER CONTENT '
               'FOR STREAM SEGMENT:     1 REACH:    82 INITIAL WATER CONTENT '
               'RESET TO RESIDUAL OF  0.10000E+00\n',
               '- INITIAL WATER CONTENT IS LESS THAN RESIDUAL WATER CONTENT '
               'FOR STREAM SEGMENT:     1 REACH:    83 INITIAL WATER CONTENT '
               'RESET TO RESIDUAL OF  0.10000E+00\n',
               '- INITIAL WATER CONTENT IS LESS THAN RESIDUAL WATER CONTENT '
               'FOR STREAM SEGMENT:     1 REACH:    84 INITIAL WATER CONTENT '
               'RESET TO RESIDUAL OF  0.10000E+00\n',
               '- INITIAL WATER CONTENT IS LESS THAN RESIDUAL WATER CONTENT '
               'FOR STREAM SEGMENT:     1 REACH:    85 INITIAL WATER CONTENT '
               'RESET TO RESIDUAL OF  0.10000E+00\n',
               '- INITIAL WATER CONTENT IS LESS THAN RESIDUAL WATER CONTENT '
               'FOR STREAM SEGMENT:     1 REACH:    86 INITIAL WATER CONTENT '
               'RESET TO RESIDUAL OF  0.10000E+00\n',
               '- INITIAL WATER CONTENT IS LESS THAN RESIDUAL WATER CONTENT '
               'FOR STREAM SEGMENT:     1 REACH:    87 INITIAL WATER CONTENT '
               'RESET TO RESIDUAL OF  0.10000E+00\n',
               '- INITIAL WATER CONTENT IS LESS THAN RESIDUAL WATER CONTENT '
               'FOR STREAM SEGMENT:     1 REACH:    88 INITIAL WATER CONTENT '
               'RESET TO RESIDUAL OF  0.10000E+00\n',
               '- INITIAL WATER CONTENT IS LESS THAN RESIDUAL WATER CONTENT '
               'FOR STREAM SEGMENT:     1 REACH:    89 INITIAL WATER CONTENT '
               'RESET TO RESIDUAL OF  0.10000E+00\n',
               '- INITIAL WATER CONTENT IS LESS THAN RESIDUAL WATER CONTENT '
               'FOR STREAM SEGMENT:     1 REACH:    90 INITIAL WATER CONTENT '
               'RESET TO RESIDUAL OF  0.10000E+00\n',
               '- INITIAL WATER CONTENT IS LESS THAN RESIDUAL WATER CONTENT '
               'FOR STREAM SEGMENT:     1 REACH:    91 INITIAL WATER CONTENT '
               'RESET TO RESIDUAL OF  0.10000E+00\n',
               '- INITIAL WATER CONTENT IS LESS THAN RESIDUAL WATER CONTENT '
               'FOR STREAM SEGMENT:     1 REACH:    92 INITIAL WATER CONTENT '
               'RESET TO RESIDUAL OF  0.10000E+00\n',
               '- INITIAL WATER CONTENT IS LESS THAN RESIDUAL WATER CONTENT '
               'FOR STREAM SEGMENT:     1 REACH:    93 INITIAL WATER CONTENT '
               'RESET TO RESIDUAL OF  0.10000E+00\n',
               '- INITIAL WATER CONTENT IS LESS THAN RESIDUAL WATER CONTENT '
               'FOR STREAM SEGMENT:     1 REACH:    94 INITIAL WATER CONTENT '
               'RESET TO RESIDUAL OF  0.10000E+00\n',
               '- INITIAL WATER CONTENT IS LESS THAN RESIDUAL WATER CONTENT '
               'FOR STREAM SEGMENT:     1 REACH:    95 INITIAL WATER CONTENT '
               'RESET TO RESIDUAL OF  0.10000E+00\n',
               '- INITIAL WATER CONTENT IS LESS THAN RESIDUAL WATER CONTENT '
               'FOR STREAM SEGMENT:     1 REACH:    96 INITIAL WATER CONTENT '
               'RESET TO RESIDUAL OF  0.10000E+00\n',
               '- INITIAL WATER CONTENT IS LESS THAN RESIDUAL WATER CONTENT '
               'FOR STREAM SEGMENT:     1 REACH:    97 INITIAL WATER CONTENT '
               'RESET TO RESIDUAL OF  0.10000E+00\n',
               '- INITIAL WATER CONTENT IS LESS THAN RESIDUAL WATER CONTENT '
               'FOR STREAM SEGMENT:     1 REACH:    98 INITIAL WATER CONTENT '
               'RESET TO RESIDUAL OF  0.10000E+00\n',
               '- INITIAL WATER CONTENT IS LESS THAN RESIDUAL WATER CONTENT '
               'FOR STREAM SEGMENT:     1 REACH:    99 INITIAL WATER CONTENT '
               'RESET TO RESIDUAL OF  0.10000E+00\n',
               '- INITIAL WATER CONTENT IS LESS THAN RESIDUAL WATER CONTENT '
               'FOR STREAM SEGMENT:     1 REACH:   100 INITIAL WATER CONTENT '
               'RESET TO RESIDUAL OF  0.10000E+00\n',
               '-\n',
               '-\n',
               '-\n',
               '-\n',
               '-\n',
               '-\n',
               '-   8 GAGING STATIONS WERE SPECIFIED.\n',
               '-     (Lakes are identified by a negative value of the Lake '
               'Number)\n',
               '-     RECORDS WILL BE WRITTEN TO SEPARATE OUTPUT FILES '
               'REPRESENTED BY FOLLOWING UNIT NUMBERS:\n',
               '-\n',
               '- Stream Gages:\n',
               '-  GAGE #   SEGMENT   REACH   UNIT   OUTTYPE\n',
               '-       1       1      20      83       6\n',
               '-       2       1      20      84       7\n',
               '-       3       1      40      85       6\n',
               '-       4       1      40      86       7\n',
               '-       5       1      60      87       6\n',
               '-       6       1      60      88       7\n',
               '-       7       1      80      89       6\n',
               '-       8       1      80      90       7\n',
               '-\n',
               '-\n',
               '-\n',
               '-\n',
               '-\n',
               '- PCG -- CONJUGATE-GRADIENT SOLUTION PACKAGE, VERSION 7, '
               '5/2/2005\n',
               '- # PCG Package input file for hypothetical test simulation\n',
               '- # Test of SFR2 Package\n',
               '- MAXIMUM OF    300 CALLS OF SOLUTION ROUTINE\n',
               '- MAXIMUM OF     20 INTERNAL ITERATIONS PER CALL TO SOLUTION '
               'ROUTINE\n',
               '- MATRIX PRECONDITIONING TYPE :    1\n',
               '-\n',
               '-\n',
               '-\n',
               '-                                    SOLUTION BY THE '
               'CONJUGATE-GRADIENT METHOD\n',
               '-                                   '
               '-------------------------------------------\n',
               '-                    MAXIMUM NUMBER OF CALLS TO PCG ROUTINE '
               '=      300\n',
               '-                        MAXIMUM ITERATIONS PER CALL TO PCG '
               '=       20\n',
               '-                               MATRIX PRECONDITIONING TYPE '
               '=        1\n',
               '-        RELAXATION FACTOR (ONLY USED WITH PRECOND. TYPE 1) '
               '=    0.90000E+00\n',
               '- PARAMETER OF POLYNOMIAL PRECOND. = 2 (2) OR IS CALCULATED '
               ':        2\n',
               '-                         HEAD CHANGE CRITERION FOR CLOSURE '
               '=    0.10000E-05\n',
               '-                     RESIDUAL CHANGE CRITERION FOR CLOSURE '
               '=    0.10000E-04\n',
               '-            PCG HEAD AND RESIDUAL CHANGE PRINTOUT INTERVAL '
               '=      999\n',
               '-     PRINTING FROM SOLVER IS LIMITED(1) OR SUPPRESSED (>1) '
               '=        3\n',
               '-                            STEADY-STATE DAMPING PARAMETER '
               '=    0.96000E+00\n',
               '-                               TRANSIENT DAMPING PARAMETER '
               '=    0.96000E+00\n',
               '-1\n',
               '-                            STRESS PERIOD NO.    1, LENGTH '
               '=   2592000.    \n',
               '-                            '
               '-----------------------------------------------\n',
               '-\n',
               '-                              NUMBER OF TIME STEPS =    30\n',
               '-\n',
               '-                               MULTIPLIER FOR DELT =     '
               '1.100\n',
               '-\n',
               '-                            INITIAL TIME STEP SIZE =   '
               '15757.40    \n',
               '-\n',
               '- BOUND. NO. LAYER   ROW   COL     STAGE      '
               'CONDUCTANCE         \n',
               '- '
               '----------------------------------------------------------------\n',
               '-      1      1      1    100       75.00           '
               '4.100    \n',
               '-      2      1      2    100       75.00           '
               '4.100    \n',
               '-      3      1      3    100       75.00           '
               '4.100    \n',
               '-      4      1      4    100       75.00           '
               '4.100    \n',
               '-      5      1      5    100       75.00           '
               '4.100    \n',
               '-      6      1      6    100       75.00           '
               '4.100    \n',
               '-      7      1      7    100       75.00           '
               '4.100    \n',
               '-\n',
               '-      7 GHB CELLS\n',
               '-\n',
               '-\n',
               '-\n',
               '- CLASSIFICATION & COUNT OF STREAM SEGMENTS BASED ON SOURCE OF '
               'INFLOW:\n',
               '-\n',
               '-                HEADWATER     DIVERSION     RECEIVES '
               'TRIBUTARY FLOW\n',
               '-                ---------     ---------     '
               '-----------------------\n',
               '-                     1              0               0\n',
               '-\n',
               '-\n',
               '-\n',
               '-                    INPUT DATA FOR EACH STREAM SEGMENT\n',
               '- '
               '---------------------------------------------------------------------------------------------\n',
               '-\n',
               '- SEGMENT    SEG.     INFLOW   OVERLAND   STREAM    STREAM   '
               'ICALC  OUTFLOW  DIVERSION PRIORITY\n',
               '-    NO.    LENGTH     RATE     RUNOFF      ET       PPT.    '
               'METH.  TO SEG.  FROM SEG.    NO.\n',
               '-\n',
               '-      1  2.000E+04 3.000E-01 0.000E+00 0.000E+00 0.000E+00    '
               '2        0        0        0\n',
               '-\n',
               '-\n',
               '-         STREAMBED PROPERTIES AND STREAM DIMENSIONS\n',
               '-\n',
               '- SEGMENT     BED HYD. COND.      BED THICKNESS     ELEV.-TOP '
               'OF BED     WIDTH OF STREAM     DEPTH OF STREAM    STREAM '
               'ROUGHNESS    SAT. WATER CONT.    INT. WATER CONT.    '
               'BROOKS/COREY EPS.     UNSAT. HYD. COND.\n',
               '-    No.     UPPER     LOWER     UPPER     LOWER     UPPER     '
               'LOWER     UPPER     LOWER     UPPER     LOWER   CHANNEL      '
               'BANK     UPPER     LOWER     UPPER     LOWER     UPPER     '
               'LOWER     UPPER\n',
               '-\n',
               '-     1  3.500E-07 3.500E-07 5.000E-01 5.000E-01 1.400E+02 '
               '1.100E+02                                         3.000E-02 '
               '4.000E-02 3.000E-01 3.000E-01 1.000E-01 1.000E-01 3.500E+00 '
               '3.500E+00 6.000E-06 6.000E-06\n',
               '-\n',
               '-  EIGHT POINT CROSS-SECTION DATA FOR SEGMENTS WITH ICALC = '
               '2\n',
               '-    X VALUES X VALUES START FROM LEFT SIDE LOOKING '
               'DOWNSTREAM\n',
               '-\n',
               '-     SEGMENT NO.        X1        X2        X3        '
               'X4        X5        X6        X7        X8\n',
               '-            1      0.000E+00 2.000E+00 4.000E+00 6.000E+00 '
               '8.000E+00 1.000E+01 1.200E+01 1.400E+01\n',
               '-\n',
               '-    Z VALUES ARE RELATIVE TO STREAMBED ELEVATION\n',
               '-\n',
               '-     SEGMENT NO.          Z1        Z2        Z3        '
               'Z4        Z5        Z6        Z7        Z8\n',
               '-            1      6.000E+00 4.500E+00 3.500E+00 0.000E+00 '
               '3.000E-01 3.500E+00 4.500E+00 6.000E+00\n',
               '-\n',
               '-\n',
               '-\n',
               '-TABULAR INFLOWS WERE READ FOR SEGMENT      1\n',
               '-FROM FILE UNIT NUMBER     55\n',
               '-\n',
               '-          TIMES                    INFLOWS\n',
               '-             0.0000000000         0.3000000119\n',
               '-       2592000.0000000000         2.5329999924\n',
               '-       5184000.0000000000         3.8399999142\n',
               '-       7776000.0000000000        17.8500003815\n',
               '-      10368000.0000000000        20.2600002289\n',
               '-      12960000.0000000000        35.6100006104\n',
               '-      15552000.0000000000        44.0699996948\n',
               '-      18144000.0000000000        33.9099998474\n',
               '-      20736000.0000000000        16.2800006866\n',
               '-      23328000.0000000000        11.3400001526\n',
               '-      25920000.0000000000         3.3840000629\n',
               '-      28512000.0000000000         2.2079999447\n',
               '-      31104000.0000000000         1.2680000067\n',
               '-      33696000.0000000000         3.3499999046\n',
               '-      36288000.0000000000         6.1799998283\n',
               '-      38880000.0000000000        22.4099998474\n',
               '-      41472000.0000000000        17.4699993134\n',
               '-      44064000.0000000000        40.4700012207\n',
               '-      46656000.0000000000        65.5599975586\n',
               '-      49248000.0000000000        35.5600013733\n',
               '-      51840000.0000000000        12.6300001144\n',
               '-      54432000.0000000000         5.8159999847\n',
               '-      57024000.0000000000         4.2960000038\n',
               '-      59616000.0000000000         1.1629999876\n',
               '-      62208000.0000000000         0.3289999962\n',
               '-      64800000.0000000000         0.5120000243\n',
               '-      67392000.0000000000         0.7500000000\n',
               '-      69984000.0000000000         1.7300000191\n',
               '-      72576000.0000000000         5.6799998283\n',
               '-      75168000.0000000000         7.7100000381\n',
               '-      77760000.0000000000         5.4600000381\n',
               '-      80352000.0000000000         6.2699999809\n',
               '-      82944000.0000000000         2.0699999332\n',
               '-      85536000.0000000000         0.3499999940\n',
               '-      88128000.0000000000         0.0529999994\n',
               '-      90720000.0000000000         0.0160000008\n',
               '-      93312000.0000000000         0.0619999990\n',
               '-      95904000.0000000000         3.7300000191\n',
               '-      98496000.0000000000         3.0000000000\n',
               '-     101088000.0000000000         2.4600000381\n',
               '-     103680000.0000000000        19.7000007629\n',
               '-     106272000.0000000000         9.1099996567\n',
               '-     108864000.0000000000         9.9799995422\n',
               '-     111456000.0000000000         6.5100002289\n',
               '-     114048000.0000000000         3.4300000668\n',
               '-     116640000.0000000000         0.5000000000\n',
               '-     119232000.0000000000         2.0999999046\n',
               '-     121824000.0000000000         4.1999998093\n',
               '-     124416000.0000000000         0.0000000000\n',
               '-     127008000.0000000000         0.8999999762\n',
               '- \n',
               '- SOLVING FOR HEAD \n',
               '-\n',
               '- NO OUTPUT CONTROL FOR STRESS PERIOD    1   TIME STEP    1\n',
               '- \n',
               '- SOLVING FOR HEAD \n',
               '-\n',
               '- NO OUTPUT CONTROL FOR STRESS PERIOD    1   TIME STEP    2\n',
               '- \n',
               '- SOLVING FOR HEAD \n',
               '-\n',
               '- NO OUTPUT CONTROL FOR STRESS PERIOD    1   TIME STEP    3\n',
               '- \n',
               '- SOLVING FOR HEAD \n',
               '-\n',
               '- NO OUTPUT CONTROL FOR STRESS PERIOD    1   TIME STEP    4\n',
               '- \n',
               '- SOLVING FOR HEAD \n',
               '-\n',
               '- NO OUTPUT CONTROL FOR STRESS PERIOD    1   TIME STEP    5\n',
               '- \n',
               '- SOLVING FOR HEAD \n',
               '-\n',
               '- NO OUTPUT CONTROL FOR STRESS PERIOD    1   TIME STEP    6\n',
               '- \n',
               '- SOLVING FOR HEAD \n',
               '-\n',
               '- NO OUTPUT CONTROL FOR STRESS PERIOD    1   TIME STEP    7\n',
               '- \n',
               '- SOLVING FOR HEAD \n',
               '-\n',
               '- NO OUTPUT CONTROL FOR STRESS PERIOD    1   TIME STEP    8\n',
               '- \n',
               '- SOLVING FOR HEAD \n',
               '-\n',
               '- NO OUTPUT CONTROL FOR STRESS PERIOD    1   TIME STEP    9\n',
               '- \n',
               '- SOLVING FOR HEAD \n',
               '-\n',
               '- OUTPUT CONTROL FOR STRESS PERIOD    1   TIME STEP   10\n',
               '-    PRINT HEAD FOR ALL LAYERS\n',
               '-    PRINT BUDGET\n',
               '-    SAVE BUDGET\n',
               '-\n',
               '-  HEAD DEP BOUNDS   PERIOD    1   STEP  10\n',
               '- BOUNDARY      1   LAYER   1   ROW     1   COL   100   RATE   '
               '-0.300824    \n',
               '- BOUNDARY      2   LAYER   1   ROW     2   COL   100   RATE   '
               '-0.300718    \n',
               '- BOUNDARY      3   LAYER   1   ROW     3   COL   100   RATE   '
               '-0.297419    \n',
               '- BOUNDARY      4   LAYER   1   ROW     4   COL   100   RATE   '
               '-0.207828    \n',
               '- BOUNDARY      5   LAYER   1   ROW     5   COL   100   RATE   '
               '-0.297419    \n',
               '- BOUNDARY      6   LAYER   1   ROW     6   COL   100   RATE   '
               '-0.300718    \n',
               '- BOUNDARY      7   LAYER   1   ROW     7   COL   100   RATE   '
               '-0.300824    \n',
               '-\n',
               '-\n',
               '-\n',
               '- STREAM LISTING     PERIOD      1   STEP       10\n',
               '-\n',
               '- LAYER ROW COL. STREAM  RCH.   FLOW INTO    STREAM     FLOW '
               'OUT OF   OVRLND.    DIRECT     STREAM      STREAM      '
               'STREAM     STREAM  STREAMBED   FLOW TO   CHNG. UNSAT. \n',
               '-                SEG.NO.  NO.   STRM. RCH.    LOSS       STRM. '
               'RCH.   RUNOFF     PRECIP       ET         HEAD        '
               'DEPTH      WIDTH  CONDCTNC.   WAT. TAB.\n',
               '-\n',
               '-   1    4    1     1     1    3.0000E-01  3.4737E-04   '
               '2.9965E-01  0.000E+00  0.000E+00  0.000E+00  1.40279E+02  '
               '4.294E-01  2.326E+00  3.737E-04  0.000E+00  3.474E-04\n',
               '-   1    4    2     1     2    2.9965E-01  3.4724E-04   '
               '2.9931E-01  0.000E+00  0.000E+00  0.000E+00  1.39979E+02  '
               '4.292E-01  2.326E+00  3.737E-04  0.000E+00  3.472E-04\n',
               '-   1    4    3     1     3    2.9931E-01  3.4710E-04   '
               '2.9896E-01  0.000E+00  0.000E+00  0.000E+00  1.39679E+02  '
               '4.290E-01  2.326E+00  3.736E-04  0.000E+00  3.471E-04\n',
               '-   1    4    4     1     4    2.9896E-01  3.4696E-04   '
               '2.9861E-01  0.000E+00  0.000E+00  0.000E+00  1.39379E+02  '
               '4.288E-01  2.326E+00  3.735E-04  0.000E+00  3.470E-04\n',
               '-   1    4    5     1     5    2.9861E-01  3.4682E-04   '
               '2.9826E-01  0.000E+00  0.000E+00  0.000E+00  1.39079E+02  '
               '4.286E-01  2.325E+00  3.735E-04  0.000E+00  3.468E-04\n',
               '-   1    4    6     1     6    2.9826E-01  3.4669E-04   '
               '2.9792E-01  0.000E+00  0.000E+00  0.000E+00  1.38778E+02  '
               '4.284E-01  2.325E+00  3.734E-04  0.000E+00  3.467E-04\n',
               '-   1    4    7     1     7    2.9792E-01  3.4655E-04   '
               '2.9757E-01  0.000E+00  0.000E+00  0.000E+00  1.38478E+02  '
               '4.282E-01  2.325E+00  3.733E-04  0.000E+00  3.466E-04\n',
               '-   1    4    8     1     8    2.9757E-01  3.4641E-04   '
               '2.9722E-01  0.000E+00  0.000E+00  0.000E+00  1.38178E+02  '
               '4.280E-01  2.325E+00  3.733E-04  0.000E+00  3.464E-04\n',
               '-   1    4    9     1     9    2.9722E-01  3.4628E-04   '
               '2.9688E-01  0.000E+00  0.000E+00  0.000E+00  1.37878E+02  '
               '4.278E-01  2.324E+00  3.732E-04  0.000E+00  3.463E-04\n',
               '-   1    4   10     1    10    2.9688E-01  3.4614E-04   '
               '2.9653E-01  0.000E+00  0.000E+00  0.000E+00  1.37578E+02  '
               '4.276E-01  2.324E+00  3.732E-04  0.000E+00  3.461E-04\n',
               '-   1    4   11     1    11    2.9653E-01  3.4600E-04   '
               '2.9619E-01  0.000E+00  0.000E+00  0.000E+00  1.37277E+02  '
               '4.274E-01  2.324E+00  3.731E-04  0.000E+00  3.460E-04\n',
               '-   1    4   12     1    12    2.9619E-01  3.4586E-04   '
               '2.9584E-01  0.000E+00  0.000E+00  0.000E+00  1.36977E+02  '
               '4.272E-01  2.324E+00  3.730E-04  0.000E+00  3.459E-04\n',
               '-   1    4   13     1    13    2.9584E-01  3.4573E-04   '
               '2.9549E-01  0.000E+00  0.000E+00  0.000E+00  1.36677E+02  '
               '4.270E-01  2.323E+00  3.730E-04  0.000E+00  3.457E-04\n',
               '-   1    4   14     1    14    2.9549E-01  3.4559E-04   '
               '2.9515E-01  0.000E+00  0.000E+00  0.000E+00  1.36377E+02  '
               '4.268E-01  2.323E+00  3.729E-04  0.000E+00  3.456E-04\n',
               '-   1    4   15     1    15    2.9515E-01  3.4545E-04   '
               '2.9480E-01  0.000E+00  0.000E+00  0.000E+00  1.36077E+02  '
               '4.266E-01  2.323E+00  3.728E-04  0.000E+00  3.455E-04\n',
               '-   1    4   16     1    16    2.9480E-01  3.4531E-04   '
               '2.9446E-01  0.000E+00  0.000E+00  0.000E+00  1.35776E+02  '
               '4.264E-01  2.323E+00  3.728E-04  0.000E+00  3.453E-04\n',
               '-   1    4   17     1    17    2.9446E-01  3.4518E-04   '
               '2.9411E-01  0.000E+00  0.000E+00  0.000E+00  1.35476E+02  '
               '4.262E-01  2.322E+00  3.727E-04  0.000E+00  3.452E-04\n',
               '-   1    4   18     1    18    2.9411E-01  3.4504E-04   '
               '2.9377E-01  0.000E+00  0.000E+00  0.000E+00  1.35176E+02  '
               '4.260E-01  2.322E+00  3.726E-04  0.000E+00  3.450E-04\n',
               '-   1    4   19     1    19    2.9377E-01  3.4490E-04   '
               '2.9342E-01  0.000E+00  0.000E+00  0.000E+00  1.34876E+02  '
               '4.258E-01  2.322E+00  3.726E-04  0.000E+00  3.449E-04\n',
               '-   1    4   20     1    20    2.9342E-01  3.4477E-04   '
               '2.9308E-01  0.000E+00  0.000E+00  0.000E+00  1.34576E+02  '
               '4.256E-01  2.322E+00  3.725E-04  0.000E+00  3.448E-04\n',
               '-   1    4   21     1    21    2.9308E-01  3.4463E-04   '
               '2.9273E-01  0.000E+00  0.000E+00  0.000E+00  1.34275E+02  '
               '4.254E-01  2.321E+00  3.724E-04  0.000E+00  3.446E-04\n',
               '-   1    4   22     1    22    2.9273E-01  3.4449E-04   '
               '2.9239E-01  0.000E+00  0.000E+00  0.000E+00  1.33975E+02  '
               '4.252E-01  2.321E+00  3.724E-04  0.000E+00  3.445E-04\n',
               '-   1    4   23     1    23    2.9239E-01  3.4435E-04   '
               '2.9205E-01  0.000E+00  0.000E+00  0.000E+00  1.33675E+02  '
               '4.250E-01  2.321E+00  3.723E-04  0.000E+00  3.444E-04\n',
               '-   1    4   24     1    24    2.9205E-01  3.4422E-04   '
               '2.9170E-01  0.000E+00  0.000E+00  0.000E+00  1.33375E+02  '
               '4.248E-01  2.321E+00  3.722E-04  0.000E+00  3.442E-04\n',
               '-   1    4   25     1    25    2.9170E-01  3.4408E-04   '
               '2.9136E-01  0.000E+00  0.000E+00  0.000E+00  1.33075E+02  '
               '4.246E-01  2.320E+00  3.722E-04  0.000E+00  3.441E-04\n',
               '-   1    4   26     1    26    2.9136E-01  3.4394E-04   '
               '2.9101E-01  0.000E+00  0.000E+00  0.000E+00  1.32774E+02  '
               '4.244E-01  2.320E+00  3.721E-04  0.000E+00  3.439E-04\n',
               '-   1    4   27     1    27    2.9101E-01  3.4381E-04   '
               '2.9067E-01  0.000E+00  0.000E+00  0.000E+00  1.32474E+02  '
               '4.242E-01  2.320E+00  3.720E-04  0.000E+00  3.438E-04\n',
               '-   1    4   28     1    28    2.9067E-01  3.4367E-04   '
               '2.9033E-01  0.000E+00  0.000E+00  0.000E+00  1.32174E+02  '
               '4.240E-01  2.320E+00  3.720E-04  0.000E+00  3.437E-04\n',
               '-   1    4   29     1    29    2.9033E-01  3.4353E-04   '
               '2.8998E-01  0.000E+00  0.000E+00  0.000E+00  1.31874E+02  '
               '4.237E-01  2.319E+00  3.719E-04  0.000E+00  3.435E-04\n',
               '-   1    4   30     1    30    2.8998E-01  3.4339E-04   '
               '2.8964E-01  0.000E+00  0.000E+00  0.000E+00  1.31574E+02  '
               '4.235E-01  2.319E+00  3.718E-04  0.000E+00  3.434E-04\n',
               '-   1    4   31     1    31    2.8964E-01  3.4326E-04   '
               '2.8930E-01  0.000E+00  0.000E+00  0.000E+00  1.31273E+02  '
               '4.233E-01  2.319E+00  3.718E-04  0.000E+00  3.433E-04\n',
               '-   1    4   32     1    32    2.8930E-01  3.4312E-04   '
               '2.8895E-01  0.000E+00  0.000E+00  0.000E+00  1.30973E+02  '
               '4.231E-01  2.319E+00  3.717E-04  0.000E+00  3.431E-04\n',
               '-   1    4   33     1    33    2.8895E-01  3.4298E-04   '
               '2.8861E-01  0.000E+00  0.000E+00  0.000E+00  1.30673E+02  '
               '4.229E-01  2.319E+00  3.716E-04  0.000E+00  3.430E-04\n',
               '-   1    4   34     1    34    2.8861E-01  3.4285E-04   '
               '2.8827E-01  0.000E+00  0.000E+00  0.000E+00  1.30373E+02  '
               '4.227E-01  2.318E+00  3.716E-04  0.000E+00  3.428E-04\n',
               '-   1    4   35     1    35    2.8827E-01  3.4271E-04   '
               '2.8792E-01  0.000E+00  0.000E+00  0.000E+00  1.30073E+02  '
               '4.225E-01  2.318E+00  3.715E-04  0.000E+00  3.427E-04\n',
               '-   1    4   36     1    36    2.8792E-01  3.4257E-04   '
               '2.8758E-01  0.000E+00  0.000E+00  0.000E+00  1.29772E+02  '
               '4.223E-01  2.318E+00  3.714E-04  0.000E+00  3.426E-04\n',
               '-   1    4   37     1    37    2.8758E-01  3.4244E-04   '
               '2.8724E-01  0.000E+00  0.000E+00  0.000E+00  1.29472E+02  '
               '4.221E-01  2.318E+00  3.714E-04  0.000E+00  3.424E-04\n',
               '-   1    4   38     1    38    2.8724E-01  3.4230E-04   '
               '2.8690E-01  0.000E+00  0.000E+00  0.000E+00  1.29172E+02  '
               '4.219E-01  2.317E+00  3.713E-04  0.000E+00  3.423E-04\n',
               '-   1    4   39     1    39    2.8690E-01  3.4216E-04   '
               '2.8655E-01  0.000E+00  0.000E+00  0.000E+00  1.28872E+02  '
               '4.217E-01  2.317E+00  3.712E-04  0.000E+00  3.422E-04\n',
               '-   1    4   40     1    40    2.8655E-01  3.4203E-04   '
               '2.8621E-01  0.000E+00  0.000E+00  0.000E+00  1.28572E+02  '
               '4.215E-01  2.317E+00  3.712E-04  0.000E+00  3.420E-04\n',
               '-   1    4   41     1    41    2.8621E-01  3.4189E-04   '
               '2.8587E-01  0.000E+00  0.000E+00  0.000E+00  1.28271E+02  '
               '4.213E-01  2.317E+00  3.711E-04  0.000E+00  3.419E-04\n',
               '-   1    4   42     1    42    2.8587E-01  3.4175E-04   '
               '2.8553E-01  0.000E+00  0.000E+00  0.000E+00  1.27971E+02  '
               '4.211E-01  2.316E+00  3.710E-04  0.000E+00  3.418E-04\n',
               '-   1    4   43     1    43    2.8553E-01  3.4162E-04   '
               '2.8519E-01  0.000E+00  0.000E+00  0.000E+00  1.27671E+02  '
               '4.209E-01  2.316E+00  3.710E-04  0.000E+00  3.416E-04\n',
               '-   1    4   44     1    44    2.8519E-01  3.4148E-04   '
               '2.8485E-01  0.000E+00  0.000E+00  0.000E+00  1.27371E+02  '
               '4.207E-01  2.316E+00  3.709E-04  0.000E+00  3.415E-04\n',
               '-   1    4   45     1    45    2.8485E-01  3.4134E-04   '
               '2.8450E-01  0.000E+00  0.000E+00  0.000E+00  1.27070E+02  '
               '4.205E-01  2.316E+00  3.708E-04  0.000E+00  3.413E-04\n',
               '-   1    4   46     1    46    2.8450E-01  3.4121E-04   '
               '2.8416E-01  0.000E+00  0.000E+00  0.000E+00  1.26770E+02  '
               '4.203E-01  2.315E+00  3.708E-04  0.000E+00  3.412E-04\n',
               '-   1    4   47     1    47    2.8416E-01  3.4107E-04   '
               '2.8382E-01  0.000E+00  0.000E+00  0.000E+00  1.26470E+02  '
               '4.201E-01  2.315E+00  3.707E-04  0.000E+00  3.411E-04\n',
               '-   1    4   48     1    48    2.8382E-01  3.4093E-04   '
               '2.8348E-01  0.000E+00  0.000E+00  0.000E+00  1.26170E+02  '
               '4.199E-01  2.315E+00  3.706E-04  0.000E+00  3.409E-04\n',
               '-   1    4   49     1    49    2.8348E-01  3.4080E-04   '
               '2.8314E-01  0.000E+00  0.000E+00  0.000E+00  1.25870E+02  '
               '4.197E-01  2.315E+00  3.706E-04  0.000E+00  3.408E-04\n',
               '-   1    4   50     1    50    2.8314E-01  3.4066E-04   '
               '2.8280E-01  0.000E+00  0.000E+00  0.000E+00  1.25569E+02  '
               '4.195E-01  2.314E+00  3.705E-04  0.000E+00  3.407E-04\n',
               '-   1    4   51     1    51    2.8280E-01  3.4052E-04   '
               '2.8246E-01  0.000E+00  0.000E+00  0.000E+00  1.25269E+02  '
               '4.193E-01  2.314E+00  3.704E-04  0.000E+00  3.405E-04\n',
               '-   1    4   52     1    52    2.8246E-01  3.4039E-04   '
               '2.8212E-01  0.000E+00  0.000E+00  0.000E+00  1.24969E+02  '
               '4.191E-01  2.314E+00  3.704E-04  0.000E+00  3.404E-04\n',
               '-   1    4   53     1    53    2.8212E-01  3.4025E-04   '
               '2.8178E-01  0.000E+00  0.000E+00  0.000E+00  1.24669E+02  '
               '4.189E-01  2.314E+00  3.703E-04  0.000E+00  3.402E-04\n',
               '-   1    4   54     1    54    2.8178E-01  3.4011E-04   '
               '2.8144E-01  0.000E+00  0.000E+00  0.000E+00  1.24369E+02  '
               '4.187E-01  2.313E+00  3.702E-04  0.000E+00  3.401E-04\n',
               '-   1    4   55     1    55    2.8144E-01  3.3998E-04   '
               '2.8110E-01  0.000E+00  0.000E+00  0.000E+00  1.24068E+02  '
               '4.185E-01  2.313E+00  3.702E-04  0.000E+00  3.400E-04\n',
               '-   1    4   56     1    56    2.8110E-01  3.3984E-04   '
               '2.8076E-01  0.000E+00  0.000E+00  0.000E+00  1.23768E+02  '
               '4.182E-01  2.313E+00  3.701E-04  0.000E+00  3.398E-04\n',
               '-   1    4   57     1    57    2.8076E-01  3.3970E-04   '
               '2.8042E-01  0.000E+00  0.000E+00  0.000E+00  1.23468E+02  '
               '4.180E-01  2.313E+00  3.700E-04  0.000E+00  3.397E-04\n',
               '-   1    4   58     1    58    2.8042E-01  3.3957E-04   '
               '2.8008E-01  0.000E+00  0.000E+00  0.000E+00  1.23168E+02  '
               '4.178E-01  2.312E+00  3.700E-04  0.000E+00  3.396E-04\n',
               '-   1    4   59     1    59    2.8008E-01  3.3943E-04   '
               '2.7974E-01  0.000E+00  0.000E+00  0.000E+00  1.22868E+02  '
               '4.176E-01  2.312E+00  3.699E-04  0.000E+00  3.394E-04\n',
               '-   1    4   60     1    60    2.7974E-01  3.3929E-04   '
               '2.7940E-01  0.000E+00  0.000E+00  0.000E+00  1.22567E+02  '
               '4.174E-01  2.312E+00  3.698E-04  0.000E+00  3.393E-04\n',
               '-   1    4   61     1    61    2.7940E-01  3.3916E-04   '
               '2.7906E-01  0.000E+00  0.000E+00  0.000E+00  1.22267E+02  '
               '4.172E-01  2.312E+00  3.698E-04  0.000E+00  3.392E-04\n',
               '-   1    4   62     1    62    2.7906E-01  3.3902E-04   '
               '2.7872E-01  0.000E+00  0.000E+00  0.000E+00  1.21967E+02  '
               '4.170E-01  2.311E+00  3.697E-04  0.000E+00  3.390E-04\n',
               '-   1    4   63     1    63    2.7872E-01  3.3889E-04   '
               '2.7838E-01  0.000E+00  0.000E+00  0.000E+00  1.21667E+02  '
               '4.168E-01  2.311E+00  3.696E-04  0.000E+00  3.389E-04\n',
               '-   1    4   64     1    64    2.7838E-01  3.3875E-04   '
               '2.7804E-01  0.000E+00  0.000E+00  0.000E+00  1.21367E+02  '
               '4.166E-01  2.311E+00  3.696E-04  0.000E+00  3.387E-04\n',
               '-   1    4   65     1    65    2.7804E-01  3.3861E-04   '
               '2.7771E-01  0.000E+00  0.000E+00  0.000E+00  1.21066E+02  '
               '4.164E-01  2.311E+00  3.695E-04  0.000E+00  3.386E-04\n',
               '-   1    4   66     1    66    2.7771E-01  3.3848E-04   '
               '2.7737E-01  0.000E+00  0.000E+00  0.000E+00  1.20766E+02  '
               '4.162E-01  2.310E+00  3.694E-04  0.000E+00  3.385E-04\n',
               '-   1    4   67     1    67    2.7737E-01  3.3834E-04   '
               '2.7703E-01  0.000E+00  0.000E+00  0.000E+00  1.20466E+02  '
               '4.160E-01  2.310E+00  3.694E-04  0.000E+00  3.383E-04\n',
               '-   1    4   68     1    68    2.7703E-01  3.3820E-04   '
               '2.7669E-01  0.000E+00  0.000E+00  0.000E+00  1.20166E+02  '
               '4.158E-01  2.310E+00  3.693E-04  0.000E+00  3.382E-04\n',
               '-   1    4   69     1    69    2.7669E-01  3.3807E-04   '
               '2.7635E-01  0.000E+00  0.000E+00  0.000E+00  1.19866E+02  '
               '4.156E-01  2.310E+00  3.692E-04  0.000E+00  3.381E-04\n',
               '-   1    4   70     1    70    2.7635E-01  3.3793E-04   '
               '2.7601E-01  0.000E+00  0.000E+00  0.000E+00  1.19565E+02  '
               '4.154E-01  2.309E+00  3.692E-04  0.000E+00  3.379E-04\n',
               '-   1    4   71     1    71    2.7601E-01  3.3779E-04   '
               '2.7568E-01  0.000E+00  0.000E+00  0.000E+00  1.19265E+02  '
               '4.152E-01  2.309E+00  3.691E-04  0.000E+00  3.378E-04\n',
               '-   1    4   72     1    72    2.7568E-01  3.3766E-04   '
               '2.7534E-01  0.000E+00  0.000E+00  0.000E+00  1.18965E+02  '
               '4.150E-01  2.309E+00  3.690E-04  0.000E+00  3.377E-04\n',
               '-   1    4   73     1    73    2.7534E-01  3.3752E-04   '
               '2.7500E-01  0.000E+00  0.000E+00  0.000E+00  1.18665E+02  '
               '4.148E-01  2.309E+00  3.690E-04  0.000E+00  3.375E-04\n',
               '-   1    4   74     1    74    2.7500E-01  3.3739E-04   '
               '2.7466E-01  0.000E+00  0.000E+00  0.000E+00  1.18365E+02  '
               '4.146E-01  2.309E+00  3.689E-04  0.000E+00  3.374E-04\n',
               '-   1    4   75     1    75    2.7466E-01  3.3725E-04   '
               '2.7433E-01  0.000E+00  0.000E+00  0.000E+00  1.18064E+02  '
               '4.144E-01  2.308E+00  3.688E-04  0.000E+00  3.373E-04\n',
               '-   1    4   76     1    76    2.7433E-01  3.3711E-04   '
               '2.7399E-01  0.000E+00  0.000E+00  0.000E+00  1.17764E+02  '
               '4.142E-01  2.308E+00  3.688E-04  0.000E+00  3.371E-04\n',
               '-   1    4   77     1    77    2.7399E-01  3.3698E-04   '
               '2.7365E-01  0.000E+00  0.000E+00  0.000E+00  1.17464E+02  '
               '4.140E-01  2.308E+00  3.687E-04  0.000E+00  3.370E-04\n',
               '-   1    4   78     1    78    2.7365E-01  3.3684E-04   '
               '2.7332E-01  0.000E+00  0.000E+00  0.000E+00  1.17164E+02  '
               '4.138E-01  2.308E+00  3.686E-04  0.000E+00  3.368E-04\n',
               '-   1    4   79     1    79    2.7332E-01  3.3671E-04   '
               '2.7298E-01  0.000E+00  0.000E+00  0.000E+00  1.16864E+02  '
               '4.136E-01  2.307E+00  3.686E-04  0.000E+00  3.367E-04\n',
               '-   1    4   80     1    80    2.7298E-01  3.3657E-04   '
               '2.7264E-01  0.000E+00  0.000E+00  0.000E+00  1.16563E+02  '
               '4.134E-01  2.307E+00  3.685E-04  0.000E+00  3.366E-04\n',
               '-   1    4   81     1    81    2.7264E-01  3.3643E-04   '
               '2.7231E-01  0.000E+00  0.000E+00  0.000E+00  1.16263E+02  '
               '4.132E-01  2.307E+00  3.684E-04  0.000E+00  3.364E-04\n',
               '-   1    4   82     1    82    2.7231E-01  3.3630E-04   '
               '2.7197E-01  0.000E+00  0.000E+00  0.000E+00  1.15963E+02  '
               '4.129E-01  2.307E+00  3.684E-04  0.000E+00  3.363E-04\n',
               '-   1    4   83     1    83    2.7197E-01  3.3616E-04   '
               '2.7163E-01  0.000E+00  0.000E+00  0.000E+00  1.15663E+02  '
               '4.127E-01  2.306E+00  3.683E-04  0.000E+00  3.362E-04\n',
               '-   1    4   84     1    84    2.7163E-01  3.3603E-04   '
               '2.7130E-01  0.000E+00  0.000E+00  0.000E+00  1.15363E+02  '
               '4.125E-01  2.306E+00  3.682E-04  0.000E+00  3.360E-04\n',
               '-   1    4   85     1    85    2.7130E-01  3.3589E-04   '
               '2.7096E-01  0.000E+00  0.000E+00  0.000E+00  1.15062E+02  '
               '4.123E-01  2.306E+00  3.682E-04  0.000E+00  3.359E-04\n',
               '-   1    4   86     1    86    2.7096E-01  3.3575E-04   '
               '2.7063E-01  0.000E+00  0.000E+00  0.000E+00  1.14762E+02  '
               '4.121E-01  2.306E+00  3.681E-04  0.000E+00  3.358E-04\n',
               '-   1    4   87     1    87    2.7063E-01  3.3562E-04   '
               '2.7029E-01  0.000E+00  0.000E+00  0.000E+00  1.14462E+02  '
               '4.119E-01  2.305E+00  3.680E-04  0.000E+00  3.356E-04\n',
               '-   1    4   88     1    88    2.7029E-01  3.3548E-04   '
               '2.6996E-01  0.000E+00  0.000E+00  0.000E+00  1.14162E+02  '
               '4.117E-01  2.305E+00  3.680E-04  0.000E+00  3.355E-04\n',
               '-   1    4   89     1    89    2.6996E-01  3.3535E-04   '
               '2.6962E-01  0.000E+00  0.000E+00  0.000E+00  1.13862E+02  '
               '4.115E-01  2.305E+00  3.679E-04  0.000E+00  3.353E-04\n',
               '-   1    4   90     1    90    2.6962E-01  3.3521E-04   '
               '2.6928E-01  0.000E+00  0.000E+00  0.000E+00  1.13561E+02  '
               '4.113E-01  2.305E+00  3.678E-04  0.000E+00  3.352E-04\n',
               '-   1    4   91     1    91    2.6928E-01  3.3507E-04   '
               '2.6895E-01  0.000E+00  0.000E+00  0.000E+00  1.13261E+02  '
               '4.111E-01  2.304E+00  3.678E-04  0.000E+00  3.351E-04\n',
               '-   1    4   92     1    92    2.6895E-01  3.3494E-04   '
               '2.6861E-01  0.000E+00  0.000E+00  0.000E+00  1.12961E+02  '
               '4.109E-01  2.304E+00  3.677E-04  0.000E+00  3.349E-04\n',
               '-   1    4   93     1    93    2.6861E-01  3.3480E-04   '
               '2.6828E-01  0.000E+00  0.000E+00  0.000E+00  1.12661E+02  '
               '4.107E-01  2.304E+00  3.676E-04  0.000E+00  3.348E-04\n',
               '-   1    4   94     1    94    2.6828E-01  3.3467E-04   '
               '2.6795E-01  0.000E+00  0.000E+00  0.000E+00  1.12360E+02  '
               '4.105E-01  2.304E+00  3.676E-04  0.000E+00  3.347E-04\n',
               '-   1    4   95     1    95    2.6795E-01  3.3453E-04   '
               '2.6761E-01  0.000E+00  0.000E+00  0.000E+00  1.12060E+02  '
               '4.103E-01  2.303E+00  3.675E-04  0.000E+00  3.345E-04\n',
               '-   1    4   96     1    96    2.6761E-01  3.3440E-04   '
               '2.6728E-01  0.000E+00  0.000E+00  0.000E+00  1.11760E+02  '
               '4.101E-01  2.303E+00  3.674E-04  0.000E+00  3.344E-04\n',
               '-   1    4   97     1    97    2.6728E-01  3.3426E-04   '
               '2.6694E-01  0.000E+00  0.000E+00  0.000E+00  1.11460E+02  '
               '4.099E-01  2.303E+00  3.674E-04  0.000E+00  3.343E-04\n',
               '-   1    4   98     1    98    2.6694E-01  3.3412E-04   '
               '2.6661E-01  0.000E+00  0.000E+00  0.000E+00  1.11160E+02  '
               '4.097E-01  2.303E+00  3.673E-04  0.000E+00  3.341E-04\n',
               '-   1    4   99     1    99    2.6661E-01  3.3399E-04   '
               '2.6627E-01  0.000E+00  0.000E+00  0.000E+00  1.10859E+02  '
               '4.095E-01  2.302E+00  3.672E-04  0.000E+00  3.340E-04\n',
               '-   1    4  100     1   100    2.6627E-01  3.3385E-04   '
               '2.6594E-01  0.000E+00  0.000E+00  0.000E+00  1.10559E+02  '
               '4.093E-01  2.302E+00  3.672E-04  0.000E+00  3.339E-04\n',
               '-\n',
               '-\n',
               '-\n',
               '-1\n',
               '-  VOLUMETRIC BUDGET FOR UNSATURATED ZONE BENEATH STREAMS AT '
               'END OF TIME STEP    10 STRESS PERIOD   1\n',
               '-  '
               '------------------------------------------------------------------------------------------------\n',
               '-\n',
               '-    CUMULATIVE VOLUMES             L**3    RATES FOR THIS '
               'TIME STEP         L**3/T\n',
               '-    ------------------                     '
               '------------------------\n',
               '-\n',
               '-\n',
               '-          STREAM LOSS =         8553.5381            STREAM '
               'LOSS =        3.4060E-02\n',
               '-    CHANGE IN STORAGE =         8553.5381      CHANGE IN '
               'STORAGE =        3.4060E-02\n',
               '-       RECHARGE TO GW =            0.0000         RECHARGE TO '
               'GW =            0.0000\n',
               '-\n',
               '-             TOTAL IN =         8553.5381               TOTAL '
               'IN =        3.4060E-02\n',
               '-\n',
               '-            TOTAL OUT =         8553.5381              TOTAL '
               'OUT =        3.4060E-02\n',
               '-\n',
               '-             IN - OUT =            0.0000               IN - '
               'OUT =       -3.7253E-09\n',
               '-\n',
               '-  PERCENT DISCREPANCY =            0.00      PERCENT '
               'DISCREPANCY =            -0.00\n',
               '-\n',
               '-\n',
               '-\n',
               '-1\n',
               '-              HEAD IN LAYER   1 AT END OF TIME STEP  10 IN '
               'STRESS PERIOD    1\n',
               '-  '
               '---------------------------------------------------------------------------\n',
               '-\n',
               '-          1      2      3      4      5      6      7      '
               '8      9     10\n',
               '-         11     12     13     14     15     16     17     '
               '18     19     20\n',
               '-         21     22     23     24     25     26     27     '
               '28     29     30\n',
               '-         31     32     33     34     35     36     37     '
               '38     39     40\n',
               '-         41     42     43     44     45     46     47     '
               '48     49     50\n',
               '-         51     52     53     54     55     56     57     '
               '58     59     60\n',
               '-         61     62     63     64     65     66     67     '
               '68     69     70\n',
               '-         71     72     73     74     75     76     77     '
               '78     79     80\n',
               '-         81     82     83     84     85     86     87     '
               '88     89     90\n',
               '-         91     92     93     94     95     96     97     '
               '98     99    100\n',
               '- '
               '.........................................................................\n',
               '-   1   104.0  104.0  104.0  104.0  104.0  104.0  104.0  '
               '104.0  104.0  104.0\n',
               '-       104.0  104.0  104.0  104.0  104.0  104.0  104.0  '
               '104.0  104.0  104.0\n',
               '-       104.0  104.0  104.0  104.0  104.0  104.0  104.0  '
               '104.0  104.0  104.0\n',
               '-       104.0  104.0  104.0  104.0  104.0  104.0  104.0  '
               '104.0  104.0  104.0\n',
               '-       104.0  104.0  104.0  104.0  104.0  104.0  104.0  '
               '104.0  104.0  104.0\n',
               '-       104.0  104.0  104.0  104.0  104.0  104.0  104.0  '
               '104.0  104.0  104.0\n',
               '-       104.0  104.0  104.0  104.0  104.0  104.0  104.0  '
               '104.0  104.0  104.0\n',
               '-       104.0  104.0  104.0  104.0  104.0  104.0  104.0  '
               '104.0  104.0  104.0\n',
               '-       104.0  104.0  103.9  103.8  103.7  103.5  103.3  '
               '103.1  102.9  102.6\n',
               '-       102.3  102.0  101.6  101.0  100.4   99.3   96.9   '
               '92.6   85.5   75.1\n',
               '-   2   104.0  104.0  104.0  104.0  104.0  104.0  104.0  '
               '104.0  104.0  104.0\n',
               '-       104.0  104.0  104.0  104.0  104.0  104.0  104.0  '
               '104.0  104.0  104.0\n',
               '-       104.0  104.0  104.0  104.0  104.0  104.0  104.0  '
               '104.0  104.0  104.0\n',
               '-       104.0  104.0  104.0  104.0  104.0  104.0  104.0  '
               '104.0  104.0  104.0\n',
               '-       104.0  104.0  104.0  104.0  104.0  104.0  104.0  '
               '104.0  104.0  104.0\n',
               '-       104.0  104.0  104.0  104.0  104.0  104.0  104.0  '
               '104.0  104.0  104.0\n',
               '-       104.0  104.0  104.0  104.0  104.0  104.0  104.0  '
               '104.0  104.0  104.0\n',
               '-       104.0  104.0  104.0  104.0  104.0  104.0  104.0  '
               '104.0  104.0  104.0\n',
               '-       104.0  104.0  103.9  103.8  103.7  103.5  103.3  '
               '103.1  102.9  102.6\n',
               '-       102.3  102.0  101.6  101.0  100.4   99.3   96.9   '
               '92.6   85.5   75.1\n',
               '-   3   104.0  104.0  104.0  104.0  104.0  104.0  104.0  '
               '104.0  104.0  104.0\n',
               '-       104.0  104.0  104.0  104.0  104.0  104.0  104.0  '
               '104.0  104.0  104.0\n',
               '-       104.0  104.0  104.0  104.0  104.0  104.0  104.0  '
               '104.0  104.0  104.0\n',
               '-       104.0  104.0  104.0  104.0  104.0  104.0  104.0  '
               '104.0  104.0  104.0\n',
               '-       104.0  104.0  104.0  104.0  104.0  104.0  104.0  '
               '104.0  104.0  104.0\n',
               '-       104.0  104.0  104.0  104.0  104.0  104.0  104.0  '
               '104.0  104.0  104.0\n',
               '-       104.0  104.0  104.0  104.0  104.0  104.0  104.0  '
               '104.0  104.0  104.0\n',
               '-       104.0  104.0  104.0  104.0  104.0  104.0  104.0  '
               '104.0  104.0  104.0\n',
               '-       104.0  104.0  103.9  103.8  103.7  103.5  103.3  '
               '103.1  102.9  102.6\n',
               '-       102.3  102.0  101.6  101.0  100.4   99.3   96.9   '
               '92.6   85.5   75.1\n',
               '-   4   104.0  104.0  104.0  104.0  104.0  104.0  104.0  '
               '104.0  104.0  104.0\n',
               '-       104.0  104.0  104.0  104.0  104.0  104.0  104.0  '
               '104.0  104.0  104.0\n',
               '-       104.0  104.0  104.0  104.0  104.0  104.0  104.0  '
               '104.0  104.0  104.0\n',
               '-       104.0  104.0  104.0  104.0  104.0  104.0  104.0  '
               '104.0  104.0  104.0\n',
               '-       104.0  104.0  104.0  104.0  104.0  104.0  104.0  '
               '104.0  104.0  104.0\n',
               '-       104.0  104.0  104.0  104.0  104.0  104.0  104.0  '
               '104.0  104.0  104.0\n',
               '-       104.0  104.0  104.0  104.0  104.0  104.0  104.0  '
               '104.0  104.0  104.0\n',
               '-       104.0  104.0  104.0  104.0  104.0  104.0  104.0  '
               '104.0  104.0  104.0\n',
               '-       104.0  104.0  103.9  103.8  103.7  103.5  103.3  '
               '103.1  102.9  102.6\n',
               '-       102.3  102.0  101.6  101.0  100.4   99.3   96.9   '
               '92.6   85.5   75.1\n',
               '-   5   104.0  104.0  104.0  104.0  104.0  104.0  104.0  '
               '104.0  104.0  104.0\n',
               '-       104.0  104.0  104.0  104.0  104.0  104.0  104.0  '
               '104.0  104.0  104.0\n',
               '-       104.0  104.0  104.0  104.0  104.0  104.0  104.0  '
               '104.0  104.0  104.0\n',
               '-       104.0  104.0  104.0  104.0  104.0  104.0  104.0  '
               '104.0  104.0  104.0\n',
               '-       104.0  104.0  104.0  104.0  104.0  104.0  104.0  '
               '104.0  104.0  104.0\n',
               '-       104.0  104.0  104.0  104.0  104.0  104.0  104.0  '
               '104.0  104.0  104.0\n',
               '-       104.0  104.0  104.0  104.0  104.0  104.0  104.0  '
               '104.0  104.0  104.0\n',
               '-       104.0  104.0  104.0  104.0  104.0  104.0  104.0  '
               '104.0  104.0  104.0\n',
               '-       104.0  104.0  103.9  103.8  103.7  103.5  103.3  '
               '103.1  102.9  102.6\n',
               '-       102.3  102.0  101.6  101.0  100.4   99.3   96.9   '
               '92.6   85.5   75.1\n',
               '-   6   104.0  104.0  104.0  104.0  104.0  104.0  104.0  '
               '104.0  104.0  104.0\n',
               '-       104.0  104.0  104.0  104.0  104.0  104.0  104.0  '
               '104.0  104.0  104.0\n',
               '-       104.0  104.0  104.0  104.0  104.0  104.0  104.0  '
               '104.0  104.0  104.0\n',
               '-       104.0  104.0  104.0  104.0  104.0  104.0  104.0  '
               '104.0  104.0  104.0\n',
               '-       104.0  104.0  104.0  104.0  104.0  104.0  104.0  '
               '104.0  104.0  104.0\n',
               '-       104.0  104.0  104.0  104.0  104.0  104.0  104.0  '
               '104.0  104.0  104.0\n',
               '-       104.0  104.0  104.0  104.0  104.0  104.0  104.0  '
               '104.0  104.0  104.0\n',
               '-       104.0  104.0  104.0  104.0  104.0  104.0  104.0  '
               '104.0  104.0  104.0\n',
               '-       104.0  104.0  103.9  103.8  103.7  103.5  103.3  '
               '103.1  102.9  102.6\n',
               '-       102.3  102.0  101.6  101.0  100.4   99.3   96.9   '
               '92.6   85.5   75.1\n',
               '-   7   104.0  104.0  104.0  104.0  104.0  104.0  104.0  '
               '104.0  104.0  104.0\n',
               '-       104.0  104.0  104.0  104.0  104.0  104.0  104.0  '
               '104.0  104.0  104.0\n',
               '-       104.0  104.0  104.0  104.0  104.0  104.0  104.0  '
               '104.0  104.0  104.0\n',
               '-       104.0  104.0  104.0  104.0  104.0  104.0  104.0  '
               '104.0  104.0  104.0\n',
               '-       104.0  104.0  104.0  104.0  104.0  104.0  104.0  '
               '104.0  104.0  104.0\n',
               '-       104.0  104.0  104.0  104.0  104.0  104.0  104.0  '
               '104.0  104.0  104.0\n',
               '-       104.0  104.0  104.0  104.0  104.0  104.0  104.0  '
               '104.0  104.0  104.0\n',
               '-       104.0  104.0  104.0  104.0  104.0  104.0  104.0  '
               '104.0  104.0  104.0\n',
               '-       104.0  104.0  103.9  103.8  103.7  103.5  103.3  '
               '103.1  102.9  102.6\n',
               '-       102.3  102.0  101.6  101.0  100.4   99.3   96.9   '
               '92.6   85.5   75.1\n',
               '-1\n',
               '-  VOLUMETRIC BUDGET FOR ENTIRE MODEL AT END OF TIME STEP   '
               '10, STRESS PERIOD   1\n',
               '-  '
               '------------------------------------------------------------------------------\n',
               '-\n',
               '-     CUMULATIVE VOLUMES      L**3       RATES FOR THIS TIME '
               'STEP      L**3/T\n',
               '-     ------------------                 '
               '------------------------\n',
               '-\n',
               '-           IN:                                      IN:\n',
               '-           ---                                      ---\n',
               '-             STORAGE =     1302269.1250               STORAGE '
               '=           2.0057\n',
               '-       CONSTANT HEAD =           0.0000         CONSTANT HEAD '
               '=           0.0000\n',
               '-     HEAD DEP BOUNDS =           0.0000       HEAD DEP BOUNDS '
               '=           0.0000\n',
               '-      STREAM LEAKAGE =           0.0000        STREAM LEAKAGE '
               '=           0.0000\n',
               '-\n',
               '-            TOTAL IN =     1302269.1250              TOTAL IN '
               '=           2.0057\n',
               '-\n',
               '-          OUT:                                     OUT:\n',
               '-          ----                                     ----\n',
               '-             STORAGE =          18.7964               STORAGE '
               '=       3.4362E-05\n',
               '-       CONSTANT HEAD =           0.0000         CONSTANT HEAD '
               '=           0.0000\n',
               '-     HEAD DEP BOUNDS =     1302256.5000       HEAD DEP BOUNDS '
               '=           2.0058\n',
               '-      STREAM LEAKAGE =           0.0000        STREAM LEAKAGE '
               '=           0.0000\n',
               '-\n',
               '-           TOTAL OUT =     1302275.2500             TOTAL OUT '
               '=           2.0058\n',
               '-\n',
               '-            IN - OUT =          -6.1250              IN - OUT '
               '=      -9.8705E-05\n',
               '-\n',
               '- PERCENT DISCREPANCY =          -0.00     PERCENT DISCREPANCY '
               '=          -0.00\n',
               '-\n',
               '-\n',
               '-\n',
               '-\n',
               '-\n',
               '-\n',
               '-         TIME SUMMARY AT END OF TIME STEP   10 IN STRESS '
               'PERIOD    1\n',
               '-                    SECONDS     MINUTES      HOURS       '
               'DAYS        YEARS\n',
               '-                    '
               '-----------------------------------------------------------\n',
               '-   TIME STEP LENGTH  37155.      619.25      10.321     '
               '0.43004     1.17738E-03\n',
               '- STRESS PERIOD TIME 2.51132E+05  4185.5      69.759      '
               '2.9066     7.95791E-03\n',
               '-         TOTAL TIME 2.51132E+05  4185.5      69.759      '
               '2.9066     7.95791E-03\n',
               '-1\n',
               '- \n',
               '- SOLVING FOR HEAD \n',
               '-\n',
               '- NO OUTPUT CONTROL FOR STRESS PERIOD    1   TIME STEP   11\n',
               '- \n',
               '- SOLVING FOR HEAD \n',
               '-\n',
               '- NO OUTPUT CONTROL FOR STRESS PERIOD    1   TIME STEP   12\n',
               '- \n',
               '- SOLVING FOR HEAD \n',
               '-\n',
               '- NO OUTPUT CONTROL FOR STRESS PERIOD    1   TIME STEP   13\n',
               '- \n',
               '- SOLVING FOR HEAD \n',
               '-\n',
               '- NO OUTPUT CONTROL FOR STRESS PERIOD    1   TIME STEP   14\n',
               '- \n',
               '- SOLVING FOR HEAD \n',
               '-\n',
               '- NO OUTPUT CONTROL FOR STRESS PERIOD    1   TIME STEP   15\n',
               '- \n',
               '- SOLVING FOR HEAD \n',
               '-\n',
               '- NO OUTPUT CONTROL FOR STRESS PERIOD    1   TIME STEP   16\n',
               '- \n',
               '- SOLVING FOR HEAD \n',
               '-\n',
               '- NO OUTPUT CONTROL FOR STRESS PERIOD    1   TIME STEP   17\n',
               '- \n',
               '- SOLVING FOR HEAD \n',
               '-\n',
               '- NO OUTPUT CONTROL FOR STRESS PERIOD    1   TIME STEP   18\n',
               '- \n',
               '- SOLVING FOR HEAD \n',
               '-\n',
               '- NO OUTPUT CONTROL FOR STRESS PERIOD    1   TIME STEP   19\n',
               '- \n',
               '- SOLVING FOR HEAD \n',
               '-\n',
               '- NO OUTPUT CONTROL FOR STRESS PERIOD    1   TIME STEP   20\n',
               '- \n',
               '- SOLVING FOR HEAD \n',
               '-\n',
               '- NO OUTPUT CONTROL FOR STRESS PERIOD    1   TIME STEP   21\n',
               '- \n',
               '- SOLVING FOR HEAD \n',
               '-\n',
               '- NO OUTPUT CONTROL FOR STRESS PERIOD    1   TIME STEP   22\n',
               '- \n',
               '- SOLVING FOR HEAD \n',
               '-\n',
               '- NO OUTPUT CONTROL FOR STRESS PERIOD    1   TIME STEP   23\n',
               '- \n',
               '- SOLVING FOR HEAD \n',
               '-\n',
               '- NO OUTPUT CONTROL FOR STRESS PERIOD    1   TIME STEP   24\n',
               '- \n',
               '- SOLVING FOR HEAD \n',
               '-\n',
               '- NO OUTPUT CONTROL FOR STRESS PERIOD    1   TIME STEP   25\n',
               '- \n',
               '- SOLVING FOR HEAD \n',
               '-\n',
               '- NO OUTPUT CONTROL FOR STRESS PERIOD    1   TIME STEP   26\n',
               '- \n',
               '- SOLVING FOR HEAD \n',
               '-\n',
               '- NO OUTPUT CONTROL FOR STRESS PERIOD    1   TIME STEP   27\n',
               '- \n',
               '- SOLVING FOR HEAD \n',
               '-\n',
               '- NO OUTPUT CONTROL FOR STRESS PERIOD    1   TIME STEP   28\n',
               '- \n',
               '- SOLVING FOR HEAD \n',
               '-\n',
               '- NO OUTPUT CONTROL FOR STRESS PERIOD    1   TIME STEP   29\n',
               '- \n',
               '- SOLVING FOR HEAD \n',
               '-\n',
               '- OUTPUT CONTROL FOR STRESS PERIOD    1   TIME STEP   30\n',
               '-    PRINT HEAD FOR ALL LAYERS\n',
               '-    PRINT BUDGET\n',
               '-    SAVE BUDGET\n',
               '-\n',
               '-  HEAD DEP BOUNDS   PERIOD    1   STEP  30\n',
               '- BOUNDARY      1   LAYER   1   ROW     1   COL   100   RATE   '
               '-0.100803    \n',
               '- BOUNDARY      2   LAYER   1   ROW     2   COL   100   RATE   '
               '-0.100768    \n',
               '- BOUNDARY      3   LAYER   1   ROW     3   COL   100   RATE   '
               '-9.967111E-02\n',
               '- BOUNDARY      4   LAYER   1   ROW     4   COL   100   RATE   '
               '-6.966195E-02\n',
               '- BOUNDARY      5   LAYER   1   ROW     5   COL   100   RATE   '
               '-9.967111E-02\n',
               '- BOUNDARY      6   LAYER   1   ROW     6   COL   100   RATE   '
               '-0.100768    \n',
               '- BOUNDARY      7   LAYER   1   ROW     7   COL   100   RATE   '
               '-0.100803    \n',
               '-\n',
               '-\n',
               '-\n',
               '- STREAM LISTING     PERIOD      1   STEP       30\n',
               '-\n',
               '- LAYER ROW COL. STREAM  RCH.   FLOW INTO    STREAM     FLOW '
               'OUT OF   OVRLND.    DIRECT     STREAM      STREAM      '
               'STREAM     STREAM  STREAMBED   FLOW TO   CHNG. UNSAT. \n',
               '-                SEG.NO.  NO.   STRM. RCH.    LOSS       STRM. '
               'RCH.   RUNOFF     PRECIP       ET         HEAD        '
               'DEPTH      WIDTH  CONDCTNC.   WAT. TAB.\n',
               '-\n',
               '-   1    4    1     1     1    3.0000E-01  3.4737E-04   '
               '2.9965E-01  0.000E+00  0.000E+00  0.000E+00  1.40279E+02  '
               '4.294E-01  2.326E+00  3.737E-04  0.000E+00  3.474E-04\n',
               '-   1    4    2     1     2    2.9965E-01  3.4724E-04   '
               '2.9931E-01  0.000E+00  0.000E+00  0.000E+00  1.39979E+02  '
               '4.292E-01  2.326E+00  3.737E-04  0.000E+00  3.472E-04\n',
               '-   1    4    3     1     3    2.9931E-01  3.4710E-04   '
               '2.9896E-01  0.000E+00  0.000E+00  0.000E+00  1.39679E+02  '
               '4.290E-01  2.326E+00  3.736E-04  0.000E+00  3.471E-04\n',
               '-   1    4    4     1     4    2.9896E-01  3.4696E-04   '
               '2.9861E-01  0.000E+00  0.000E+00  0.000E+00  1.39379E+02  '
               '4.288E-01  2.326E+00  3.735E-04  0.000E+00  3.470E-04\n',
               '-   1    4    5     1     5    2.9861E-01  3.4682E-04   '
               '2.9826E-01  0.000E+00  0.000E+00  0.000E+00  1.39079E+02  '
               '4.286E-01  2.325E+00  3.735E-04  0.000E+00  3.468E-04\n',
               '-   1    4    6     1     6    2.9826E-01  3.4669E-04   '
               '2.9792E-01  0.000E+00  0.000E+00  0.000E+00  1.38778E+02  '
               '4.284E-01  2.325E+00  3.734E-04  0.000E+00  3.467E-04\n',
               '-   1    4    7     1     7    2.9792E-01  3.4655E-04   '
               '2.9757E-01  0.000E+00  0.000E+00  0.000E+00  1.38478E+02  '
               '4.282E-01  2.325E+00  3.733E-04  0.000E+00  3.466E-04\n',
               '-   1    4    8     1     8    2.9757E-01  3.4641E-04   '
               '2.9722E-01  0.000E+00  0.000E+00  0.000E+00  1.38178E+02  '
               '4.280E-01  2.325E+00  3.733E-04  0.000E+00  3.464E-04\n',
               '-   1    4    9     1     9    2.9722E-01  3.4628E-04   '
               '2.9688E-01  0.000E+00  0.000E+00  0.000E+00  1.37878E+02  '
               '4.278E-01  2.324E+00  3.732E-04  0.000E+00  3.463E-04\n',
               '-   1    4   10     1    10    2.9688E-01  3.4614E-04   '
               '2.9653E-01  0.000E+00  0.000E+00  0.000E+00  1.37578E+02  '
               '4.276E-01  2.324E+00  3.732E-04  0.000E+00  3.461E-04\n',
               '-   1    4   11     1    11    2.9653E-01  3.4600E-04   '
               '2.9619E-01  0.000E+00  0.000E+00  0.000E+00  1.37277E+02  '
               '4.274E-01  2.324E+00  3.731E-04  0.000E+00  3.460E-04\n',
               '-   1    4   12     1    12    2.9619E-01  3.4586E-04   '
               '2.9584E-01  0.000E+00  0.000E+00  0.000E+00  1.36977E+02  '
               '4.272E-01  2.324E+00  3.730E-04  0.000E+00  3.459E-04\n',
               '-   1    4   13     1    13    2.9584E-01  3.4573E-04   '
               '2.9550E-01  0.000E+00  0.000E+00  0.000E+00  1.36677E+02  '
               '4.270E-01  2.323E+00  3.730E-04  0.000E+00  3.457E-04\n',
               '-   1    4   14     1    14    2.9550E-01  3.4559E-04   '
               '2.9515E-01  0.000E+00  0.000E+00  0.000E+00  1.36377E+02  '
               '4.268E-01  2.323E+00  3.729E-04  0.000E+00  3.456E-04\n',
               '-   1    4   15     1    15    2.9515E-01  3.4545E-04   '
               '2.9480E-01  0.000E+00  0.000E+00  0.000E+00  1.36077E+02  '
               '4.266E-01  2.323E+00  3.728E-04  0.000E+00  3.455E-04\n',
               '-   1    4   16     1    16    2.9480E-01  3.4531E-04   '
               '2.9446E-01  0.000E+00  0.000E+00  0.000E+00  1.35776E+02  '
               '4.264E-01  2.323E+00  3.728E-04  0.000E+00  3.453E-04\n',
               '-   1    4   17     1    17    2.9446E-01  3.4518E-04   '
               '2.9411E-01  0.000E+00  0.000E+00  0.000E+00  1.35476E+02  '
               '4.262E-01  2.322E+00  3.727E-04  0.000E+00  3.452E-04\n',
               '-   1    4   18     1    18    2.9411E-01  3.4504E-04   '
               '2.9377E-01  0.000E+00  0.000E+00  0.000E+00  1.35176E+02  '
               '4.260E-01  2.322E+00  3.726E-04  0.000E+00  3.450E-04\n',
               '-   1    4   19     1    19    2.9377E-01  3.4490E-04   '
               '2.9342E-01  0.000E+00  0.000E+00  0.000E+00  1.34876E+02  '
               '4.258E-01  2.322E+00  3.726E-04  0.000E+00  3.449E-04\n',
               '-   1    4   20     1    20    2.9342E-01  3.4477E-04   '
               '2.9308E-01  0.000E+00  0.000E+00  0.000E+00  1.34576E+02  '
               '4.256E-01  2.322E+00  3.725E-04  0.000E+00  3.448E-04\n',
               '-   1    4   21     1    21    2.9308E-01  3.4463E-04   '
               '2.9273E-01  0.000E+00  0.000E+00  0.000E+00  1.34275E+02  '
               '4.254E-01  2.321E+00  3.724E-04  0.000E+00  3.446E-04\n',
               '-   1    4   22     1    22    2.9273E-01  3.4449E-04   '
               '2.9239E-01  0.000E+00  0.000E+00  0.000E+00  1.33975E+02  '
               '4.252E-01  2.321E+00  3.724E-04  0.000E+00  3.445E-04\n',
               '-   1    4   23     1    23    2.9239E-01  3.4435E-04   '
               '2.9205E-01  0.000E+00  0.000E+00  0.000E+00  1.33675E+02  '
               '4.250E-01  2.321E+00  3.723E-04  0.000E+00  3.444E-04\n',
               '-   1    4   24     1    24    2.9205E-01  3.4422E-04   '
               '2.9170E-01  0.000E+00  0.000E+00  0.000E+00  1.33375E+02  '
               '4.248E-01  2.321E+00  3.722E-04  0.000E+00  3.442E-04\n',
               '-   1    4   25     1    25    2.9170E-01  3.4408E-04   '
               '2.9136E-01  0.000E+00  0.000E+00  0.000E+00  1.33075E+02  '
               '4.246E-01  2.320E+00  3.722E-04  0.000E+00  3.441E-04\n',
               '-   1    4   26     1    26    2.9136E-01  3.4394E-04   '
               '2.9101E-01  0.000E+00  0.000E+00  0.000E+00  1.32774E+02  '
               '4.244E-01  2.320E+00  3.721E-04  0.000E+00  3.439E-04\n',
               '-   1    4   27     1    27    2.9101E-01  3.4381E-04   '
               '2.9067E-01  0.000E+00  0.000E+00  0.000E+00  1.32474E+02  '
               '4.242E-01  2.320E+00  3.720E-04  0.000E+00  3.438E-04\n',
               '-   1    4   28     1    28    2.9067E-01  3.4367E-04   '
               '2.9033E-01  0.000E+00  0.000E+00  0.000E+00  1.32174E+02  '
               '4.240E-01  2.320E+00  3.720E-04  0.000E+00  3.437E-04\n',
               '-   1    4   29     1    29    2.9033E-01  3.4353E-04   '
               '2.8998E-01  0.000E+00  0.000E+00  0.000E+00  1.31874E+02  '
               '4.237E-01  2.319E+00  3.719E-04  0.000E+00  3.435E-04\n',
               '-   1    4   30     1    30    2.8998E-01  3.4339E-04   '
               '2.8964E-01  0.000E+00  0.000E+00  0.000E+00  1.31574E+02  '
               '4.235E-01  2.319E+00  3.718E-04  0.000E+00  3.434E-04\n',
               '-   1    4   31     1    31    2.8964E-01  3.4326E-04   '
               '2.8930E-01  0.000E+00  0.000E+00  0.000E+00  1.31273E+02  '
               '4.233E-01  2.319E+00  3.718E-04  0.000E+00  3.433E-04\n',
               '-   1    4   32     1    32    2.8930E-01  3.4312E-04   '
               '2.8895E-01  0.000E+00  0.000E+00  0.000E+00  1.30973E+02  '
               '4.231E-01  2.319E+00  3.717E-04  0.000E+00  3.431E-04\n',
               '-   1    4   33     1    33    2.8895E-01  3.4298E-04   '
               '2.8861E-01  0.000E+00  0.000E+00  0.000E+00  1.30673E+02  '
               '4.229E-01  2.319E+00  3.716E-04  0.000E+00  3.430E-04\n',
               '-   1    4   34     1    34    2.8861E-01  3.4285E-04   '
               '2.8827E-01  0.000E+00  0.000E+00  0.000E+00  1.30373E+02  '
               '4.227E-01  2.318E+00  3.716E-04  0.000E+00  3.428E-04\n',
               '-   1    4   35     1    35    2.8827E-01  3.4271E-04   '
               '2.8792E-01  0.000E+00  0.000E+00  0.000E+00  1.30073E+02  '
               '4.225E-01  2.318E+00  3.715E-04  0.000E+00  3.427E-04\n',
               '-   1    4   36     1    36    2.8792E-01  3.4257E-04   '
               '2.8758E-01  0.000E+00  0.000E+00  0.000E+00  1.29772E+02  '
               '4.223E-01  2.318E+00  3.714E-04  0.000E+00  3.426E-04\n',
               '-   1    4   37     1    37    2.8758E-01  3.4244E-04   '
               '2.8724E-01  0.000E+00  0.000E+00  0.000E+00  1.29472E+02  '
               '4.221E-01  2.318E+00  3.714E-04  0.000E+00  3.424E-04\n',
               '-   1    4   38     1    38    2.8724E-01  3.4230E-04   '
               '2.8690E-01  0.000E+00  0.000E+00  0.000E+00  1.29172E+02  '
               '4.219E-01  2.317E+00  3.713E-04  0.000E+00  3.423E-04\n',
               '-   1    4   39     1    39    2.8690E-01  3.4216E-04   '
               '2.8655E-01  0.000E+00  0.000E+00  0.000E+00  1.28872E+02  '
               '4.217E-01  2.317E+00  3.712E-04  0.000E+00  3.422E-04\n',
               '-   1    4   40     1    40    2.8655E-01  3.4203E-04   '
               '2.8621E-01  0.000E+00  0.000E+00  0.000E+00  1.28572E+02  '
               '4.215E-01  2.317E+00  3.712E-04  0.000E+00  3.420E-04\n',
               '-   1    4   41     1    41    2.8621E-01  3.4189E-04   '
               '2.8587E-01  0.000E+00  0.000E+00  0.000E+00  1.28271E+02  '
               '4.213E-01  2.317E+00  3.711E-04  0.000E+00  3.419E-04\n',
               '-   1    4   42     1    42    2.8587E-01  3.4175E-04   '
               '2.8553E-01  0.000E+00  0.000E+00  0.000E+00  1.27971E+02  '
               '4.211E-01  2.316E+00  3.710E-04  0.000E+00  3.418E-04\n',
               '-   1    4   43     1    43    2.8553E-01  3.4162E-04   '
               '2.8519E-01  0.000E+00  0.000E+00  0.000E+00  1.27671E+02  '
               '4.209E-01  2.316E+00  3.710E-04  0.000E+00  3.416E-04\n',
               '-   1    4   44     1    44    2.8519E-01  3.4148E-04   '
               '2.8485E-01  0.000E+00  0.000E+00  0.000E+00  1.27371E+02  '
               '4.207E-01  2.316E+00  3.709E-04  0.000E+00  3.415E-04\n',
               '-   1    4   45     1    45    2.8485E-01  3.4134E-04   '
               '2.8450E-01  0.000E+00  0.000E+00  0.000E+00  1.27070E+02  '
               '4.205E-01  2.316E+00  3.708E-04  0.000E+00  3.413E-04\n',
               '-   1    4   46     1    46    2.8450E-01  3.4121E-04   '
               '2.8416E-01  0.000E+00  0.000E+00  0.000E+00  1.26770E+02  '
               '4.203E-01  2.315E+00  3.708E-04  0.000E+00  3.412E-04\n',
               '-   1    4   47     1    47    2.8416E-01  3.4107E-04   '
               '2.8382E-01  0.000E+00  0.000E+00  0.000E+00  1.26470E+02  '
               '4.201E-01  2.315E+00  3.707E-04  0.000E+00  3.411E-04\n',
               '-   1    4   48     1    48    2.8382E-01  3.4093E-04   '
               '2.8348E-01  0.000E+00  0.000E+00  0.000E+00  1.26170E+02  '
               '4.199E-01  2.315E+00  3.706E-04  0.000E+00  3.409E-04\n',
               '-   1    4   49     1    49    2.8348E-01  3.4080E-04   '
               '2.8314E-01  0.000E+00  0.000E+00  0.000E+00  1.25870E+02  '
               '4.197E-01  2.315E+00  3.706E-04  0.000E+00  3.408E-04\n',
               '-   1    4   50     1    50    2.8314E-01  3.4066E-04   '
               '2.8280E-01  0.000E+00  0.000E+00  0.000E+00  1.25569E+02  '
               '4.195E-01  2.314E+00  3.705E-04  0.000E+00  3.407E-04\n',
               '-   1    4   51     1    51    2.8280E-01  3.4052E-04   '
               '2.8246E-01  0.000E+00  0.000E+00  0.000E+00  1.25269E+02  '
               '4.193E-01  2.314E+00  3.704E-04  0.000E+00  3.405E-04\n',
               '-   1    4   52     1    52    2.8246E-01  3.4039E-04   '
               '2.8212E-01  0.000E+00  0.000E+00  0.000E+00  1.24969E+02  '
               '4.191E-01  2.314E+00  3.704E-04  0.000E+00  3.404E-04\n',
               '-   1    4   53     1    53    2.8212E-01  3.4025E-04   '
               '2.8178E-01  0.000E+00  0.000E+00  0.000E+00  1.24669E+02  '
               '4.189E-01  2.314E+00  3.703E-04  0.000E+00  3.402E-04\n',
               '-   1    4   54     1    54    2.8178E-01  3.4011E-04   '
               '2.8144E-01  0.000E+00  0.000E+00  0.000E+00  1.24369E+02  '
               '4.187E-01  2.313E+00  3.702E-04  0.000E+00  3.401E-04\n',
               '-   1    4   55     1    55    2.8144E-01  3.3998E-04   '
               '2.8110E-01  0.000E+00  0.000E+00  0.000E+00  1.24068E+02  '
               '4.185E-01  2.313E+00  3.702E-04  0.000E+00  3.400E-04\n',
               '-   1    4   56     1    56    2.8110E-01  3.3984E-04   '
               '2.8076E-01  0.000E+00  0.000E+00  0.000E+00  1.23768E+02  '
               '4.182E-01  2.313E+00  3.701E-04  0.000E+00  3.398E-04\n',
               '-   1    4   57     1    57    2.8076E-01  3.3970E-04   '
               '2.8042E-01  0.000E+00  0.000E+00  0.000E+00  1.23468E+02  '
               '4.180E-01  2.313E+00  3.700E-04  0.000E+00  3.397E-04\n',
               '-   1    4   58     1    58    2.8042E-01  3.3957E-04   '
               '2.8008E-01  0.000E+00  0.000E+00  0.000E+00  1.23168E+02  '
               '4.178E-01  2.312E+00  3.700E-04  0.000E+00  3.396E-04\n',
               '-   1    4   59     1    59    2.8008E-01  3.3943E-04   '
               '2.7974E-01  0.000E+00  0.000E+00  0.000E+00  1.22868E+02  '
               '4.176E-01  2.312E+00  3.699E-04  0.000E+00  3.394E-04\n',
               '-   1    4   60     1    60    2.7974E-01  3.3929E-04   '
               '2.7940E-01  0.000E+00  0.000E+00  0.000E+00  1.22567E+02  '
               '4.174E-01  2.312E+00  3.698E-04  0.000E+00  3.393E-04\n',
               '-   1    4   61     1    61    2.7940E-01  3.3916E-04   '
               '2.7906E-01  0.000E+00  0.000E+00  0.000E+00  1.22267E+02  '
               '4.172E-01  2.312E+00  3.698E-04  0.000E+00  3.392E-04\n',
               '-   1    4   62     1    62    2.7906E-01  3.3902E-04   '
               '2.7872E-01  0.000E+00  0.000E+00  0.000E+00  1.21967E+02  '
               '4.170E-01  2.311E+00  3.697E-04  0.000E+00  3.390E-04\n',
               '-   1    4   63     1    63    2.7872E-01  3.3889E-04   '
               '2.7838E-01  0.000E+00  0.000E+00  0.000E+00  1.21667E+02  '
               '4.168E-01  2.311E+00  3.696E-04  0.000E+00  3.389E-04\n',
               '-   1    4   64     1    64    2.7838E-01  3.3875E-04   '
               '2.7804E-01  0.000E+00  0.000E+00  0.000E+00  1.21367E+02  '
               '4.166E-01  2.311E+00  3.696E-04  0.000E+00  3.387E-04\n',
               '-   1    4   65     1    65    2.7804E-01  3.3861E-04   '
               '2.7771E-01  0.000E+00  0.000E+00  0.000E+00  1.21066E+02  '
               '4.164E-01  2.311E+00  3.695E-04  0.000E+00  3.386E-04\n',
               '-   1    4   66     1    66    2.7771E-01  3.3848E-04   '
               '2.7737E-01  0.000E+00  0.000E+00  0.000E+00  1.20766E+02  '
               '4.162E-01  2.310E+00  3.694E-04  0.000E+00  3.385E-04\n',
               '-   1    4   67     1    67    2.7737E-01  3.3834E-04   '
               '2.7703E-01  0.000E+00  0.000E+00  0.000E+00  1.20466E+02  '
               '4.160E-01  2.310E+00  3.694E-04  0.000E+00  3.383E-04\n',
               '-   1    4   68     1    68    2.7703E-01  3.3820E-04   '
               '2.7669E-01  0.000E+00  0.000E+00  0.000E+00  1.20166E+02  '
               '4.158E-01  2.310E+00  3.693E-04  0.000E+00  3.382E-04\n',
               '-   1    4   69     1    69    2.7669E-01  3.3807E-04   '
               '2.7635E-01  0.000E+00  0.000E+00  0.000E+00  1.19866E+02  '
               '4.156E-01  2.310E+00  3.692E-04  0.000E+00  3.381E-04\n',
               '-   1    4   70     1    70    2.7635E-01  3.3793E-04   '
               '2.7601E-01  0.000E+00  0.000E+00  0.000E+00  1.19565E+02  '
               '4.154E-01  2.309E+00  3.692E-04  0.000E+00  3.379E-04\n',
               '-   1    4   71     1    71    2.7601E-01  3.3779E-04   '
               '2.7568E-01  0.000E+00  0.000E+00  0.000E+00  1.19265E+02  '
               '4.152E-01  2.309E+00  3.691E-04  0.000E+00  3.378E-04\n',
               '-   1    4   72     1    72    2.7568E-01  3.3766E-04   '
               '2.7534E-01  0.000E+00  0.000E+00  0.000E+00  1.18965E+02  '
               '4.150E-01  2.309E+00  3.690E-04  0.000E+00  3.377E-04\n',
               '-   1    4   73     1    73    2.7534E-01  3.3752E-04   '
               '2.7500E-01  0.000E+00  0.000E+00  0.000E+00  1.18665E+02  '
               '4.148E-01  2.309E+00  3.690E-04  0.000E+00  3.375E-04\n',
               '-   1    4   74     1    74    2.7500E-01  3.3739E-04   '
               '2.7466E-01  0.000E+00  0.000E+00  0.000E+00  1.18365E+02  '
               '4.146E-01  2.309E+00  3.689E-04  0.000E+00  3.374E-04\n',
               '-   1    4   75     1    75    2.7466E-01  3.3725E-04   '
               '2.7433E-01  0.000E+00  0.000E+00  0.000E+00  1.18064E+02  '
               '4.144E-01  2.308E+00  3.688E-04  0.000E+00  3.373E-04\n',
               '-   1    4   76     1    76    2.7433E-01  3.3711E-04   '
               '2.7399E-01  0.000E+00  0.000E+00  0.000E+00  1.17764E+02  '
               '4.142E-01  2.308E+00  3.688E-04  0.000E+00  3.371E-04\n',
               '-   1    4   77     1    77    2.7399E-01  3.3698E-04   '
               '2.7365E-01  0.000E+00  0.000E+00  0.000E+00  1.17464E+02  '
               '4.140E-01  2.308E+00  3.687E-04  0.000E+00  3.370E-04\n',
               '-   1    4   78     1    78    2.7365E-01  3.3684E-04   '
               '2.7332E-01  0.000E+00  0.000E+00  0.000E+00  1.17164E+02  '
               '4.138E-01  2.308E+00  3.686E-04  0.000E+00  3.368E-04\n',
               '-   1    4   79     1    79    2.7332E-01  3.3671E-04   '
               '2.7298E-01  0.000E+00  0.000E+00  0.000E+00  1.16864E+02  '
               '4.136E-01  2.307E+00  3.686E-04  0.000E+00  3.367E-04\n',
               '-   1    4   80     1    80    2.7298E-01  3.3657E-04   '
               '2.7264E-01  0.000E+00  0.000E+00  0.000E+00  1.16563E+02  '
               '4.134E-01  2.307E+00  3.685E-04  0.000E+00  3.366E-04\n',
               '-   1    4   81     1    81    2.7264E-01  3.3643E-04   '
               '2.7231E-01  0.000E+00  0.000E+00  0.000E+00  1.16263E+02  '
               '4.132E-01  2.307E+00  3.684E-04  0.000E+00  3.364E-04\n',
               '-   1    4   82     1    82    2.7231E-01  3.3630E-04   '
               '2.7197E-01  0.000E+00  0.000E+00  0.000E+00  1.15963E+02  '
               '4.129E-01  2.307E+00  3.684E-04  0.000E+00  3.363E-04\n',
               '-   1    4   83     1    83    2.7197E-01  3.3616E-04   '
               '2.7163E-01  0.000E+00  0.000E+00  0.000E+00  1.15663E+02  '
               '4.127E-01  2.306E+00  3.683E-04  0.000E+00  3.362E-04\n',
               '-   1    4   84     1    84    2.7163E-01  3.3603E-04   '
               '2.7130E-01  0.000E+00  0.000E+00  0.000E+00  1.15363E+02  '
               '4.125E-01  2.306E+00  3.682E-04  0.000E+00  3.360E-04\n',
               '-   1    4   85     1    85    2.7130E-01  3.3589E-04   '
               '2.7096E-01  0.000E+00  0.000E+00  0.000E+00  1.15062E+02  '
               '4.123E-01  2.306E+00  3.682E-04  0.000E+00  3.359E-04\n',
               '-   1    4   86     1    86    2.7096E-01  3.3575E-04   '
               '2.7063E-01  0.000E+00  0.000E+00  0.000E+00  1.14762E+02  '
               '4.121E-01  2.306E+00  3.681E-04  0.000E+00  3.358E-04\n',
               '-   1    4   87     1    87    2.7063E-01  3.3562E-04   '
               '2.7029E-01  0.000E+00  0.000E+00  0.000E+00  1.14462E+02  '
               '4.119E-01  2.305E+00  3.680E-04  0.000E+00  3.356E-04\n',
               '-   1    4   88     1    88    2.7029E-01  3.3548E-04   '
               '2.6996E-01  0.000E+00  0.000E+00  0.000E+00  1.14162E+02  '
               '4.117E-01  2.305E+00  3.680E-04  0.000E+00  3.355E-04\n',
               '-   1    4   89     1    89    2.6996E-01  3.3535E-04   '
               '2.6962E-01  0.000E+00  0.000E+00  0.000E+00  1.13862E+02  '
               '4.115E-01  2.305E+00  3.679E-04  0.000E+00  3.353E-04\n',
               '-   1    4   90     1    90    2.6962E-01  3.3521E-04   '
               '2.6928E-01  0.000E+00  0.000E+00  0.000E+00  1.13561E+02  '
               '4.113E-01  2.305E+00  3.678E-04  0.000E+00  3.352E-04\n',
               '-   1    4   91     1    91    2.6928E-01  3.3507E-04   '
               '2.6895E-01  0.000E+00  0.000E+00  0.000E+00  1.13261E+02  '
               '4.111E-01  2.304E+00  3.678E-04  0.000E+00  3.351E-04\n',
               '-   1    4   92     1    92    2.6895E-01  3.3494E-04   '
               '2.6861E-01  0.000E+00  0.000E+00  0.000E+00  1.12961E+02  '
               '4.109E-01  2.304E+00  3.677E-04  0.000E+00  3.349E-04\n',
               '-   1    4   93     1    93    2.6861E-01  3.3480E-04   '
               '2.6828E-01  0.000E+00  0.000E+00  0.000E+00  1.12661E+02  '
               '4.107E-01  2.304E+00  3.676E-04  0.000E+00  3.348E-04\n',
               '-   1    4   94     1    94    2.6828E-01  3.3467E-04   '
               '2.6795E-01  0.000E+00  0.000E+00  0.000E+00  1.12360E+02  '
               '4.105E-01  2.304E+00  3.676E-04  0.000E+00  3.347E-04\n',
               '-   1    4   95     1    95    2.6795E-01  3.3453E-04   '
               '2.6761E-01  0.000E+00  0.000E+00  0.000E+00  1.12060E+02  '
               '4.103E-01  2.303E+00  3.675E-04  0.000E+00  3.345E-04\n',
               '-   1    4   96     1    96    2.6761E-01  3.3440E-04   '
               '2.6728E-01  0.000E+00  0.000E+00  0.000E+00  1.11760E+02  '
               '4.101E-01  2.303E+00  3.674E-04  0.000E+00  3.344E-04\n',
               '-   1    4   97     1    97    2.6728E-01  3.3426E-04   '
               '2.6694E-01  0.000E+00  0.000E+00  0.000E+00  1.11460E+02  '
               '4.099E-01  2.303E+00  3.674E-04  0.000E+00  3.343E-04\n',
               '-   1    4   98     1    98    2.6694E-01  3.3412E-04   '
               '2.6661E-01  0.000E+00  0.000E+00  0.000E+00  1.11160E+02  '
               '4.097E-01  2.303E+00  3.673E-04  0.000E+00  3.341E-04\n',
               '-   1    4   99     1    99    2.6661E-01  3.3399E-04   '
               '2.6627E-01  0.000E+00  0.000E+00  0.000E+00  1.10859E+02  '
               '4.095E-01  2.302E+00  3.672E-04  0.000E+00  3.340E-04\n',
               '-   1    4  100     1   100    2.6627E-01  3.3385E-04   '
               '2.6594E-01  0.000E+00  0.000E+00  0.000E+00  1.10559E+02  '
               '4.093E-01  2.302E+00  3.672E-04  0.000E+00  3.339E-04\n',
               '-\n',
               '-\n',
               '-\n',
               '-1\n',
               '-  VOLUMETRIC BUDGET FOR UNSATURATED ZONE BENEATH STREAMS AT '
               'END OF TIME STEP    30 STRESS PERIOD   1\n',
               '-  '
               '------------------------------------------------------------------------------------------------\n',
               '-\n',
               '-    CUMULATIVE VOLUMES             L**3    RATES FOR THIS '
               'TIME STEP         L**3/T\n',
               '-    ------------------                     '
               '------------------------\n',
               '-\n',
               '-\n',
               '-          STREAM LOSS =        88283.1328            STREAM '
               'LOSS =        3.4060E-02\n',
               '-    CHANGE IN STORAGE =        88283.1328      CHANGE IN '
               'STORAGE =        3.4060E-02\n',
               '-       RECHARGE TO GW =            0.0000         RECHARGE TO '
               'GW =            0.0000\n',
               '-\n',
               '-             TOTAL IN =        88283.1328               TOTAL '
               'IN =        3.4060E-02\n',
               '-\n',
               '-            TOTAL OUT =        88283.1328              TOTAL '
               'OUT =        3.4060E-02\n',
               '-\n',
               '-             IN - OUT =            0.0000               IN - '
               'OUT =            0.0000\n',
               '-\n',
               '-  PERCENT DISCREPANCY =            0.00      PERCENT '
               'DISCREPANCY =             0.00\n',
               '-\n',
               '-\n',
               '-\n',
               '-1\n',
               '-              HEAD IN LAYER   1 AT END OF TIME STEP  30 IN '
               'STRESS PERIOD    1\n',
               '-  '
               '---------------------------------------------------------------------------\n',
               '-\n',
               '-          1      2      3      4      5      6      7      '
               '8      9     10\n',
               '-         11     12     13     14     15     16     17     '
               '18     19     20\n',
               '-         21     22     23     24     25     26     27     '
               '28     29     30\n',
               '-         31     32     33     34     35     36     37     '
               '38     39     40\n',
               '-         41     42     43     44     45     46     47     '
               '48     49     50\n',
               '-         51     52     53     54     55     56     57     '
               '58     59     60\n',
               '-         61     62     63     64     65     66     67     '
               '68     69     70\n',
               '-         71     72     73     74     75     76     77     '
               '78     79     80\n',
               '-         81     82     83     84     85     86     87     '
               '88     89     90\n',
               '-         91     92     93     94     95     96     97     '
               '98     99    100\n',
               '- '
               '.........................................................................\n',
               '-   1   104.0  104.0  104.0  104.0  104.0  104.0  104.0  '
               '104.0  104.0  104.0\n',
               '-       104.0  104.0  104.0  104.0  104.0  104.0  104.0  '
               '104.0  104.0  104.0\n',
               '-       104.0  104.0  104.0  104.0  104.0  104.0  104.0  '
               '104.0  104.0  104.0\n',
               '-       104.0  104.0  104.0  104.0  104.0  104.0  104.0  '
               '104.0  104.0  104.0\n',
               '-       104.0  104.0  104.0  104.0  104.0  104.0  104.0  '
               '104.0  104.0  104.0\n',
               '-       104.0  104.0  104.0  104.0  104.0  104.0  104.0  '
               '104.0  104.0  104.0\n',
               '-       104.0  104.0  104.0  104.0  104.0  104.0  104.0  '
               '104.0  104.0  104.0\n',
               '-       104.0  104.0  103.9  103.9  103.9  103.8  103.8  '
               '103.7  103.6  103.5\n',
               '-       103.3  103.2  102.9  102.6  102.3  101.8  101.3  '
               '100.6   99.8   98.8\n',
               '-        97.6   96.2   94.6   92.7   90.5   88.0   85.2   '
               '82.1   78.7   75.0\n',
               '-   2   104.0  104.0  104.0  104.0  104.0  104.0  104.0  '
               '104.0  104.0  104.0\n',
               '-       104.0  104.0  104.0  104.0  104.0  104.0  104.0  '
               '104.0  104.0  104.0\n',
               '-       104.0  104.0  104.0  104.0  104.0  104.0  104.0  '
               '104.0  104.0  104.0\n',
               '-       104.0  104.0  104.0  104.0  104.0  104.0  104.0  '
               '104.0  104.0  104.0\n',
               '-       104.0  104.0  104.0  104.0  104.0  104.0  104.0  '
               '104.0  104.0  104.0\n',
               '-       104.0  104.0  104.0  104.0  104.0  104.0  104.0  '
               '104.0  104.0  104.0\n',
               '-       104.0  104.0  104.0  104.0  104.0  104.0  104.0  '
               '104.0  104.0  104.0\n',
               '-       104.0  104.0  103.9  103.9  103.9  103.8  103.8  '
               '103.7  103.6  103.5\n',
               '-       103.3  103.2  102.9  102.6  102.3  101.8  101.3  '
               '100.6   99.8   98.8\n',
               '-        97.6   96.2   94.6   92.7   90.5   88.0   85.2   '
               '82.1   78.7   75.0\n',
               '-   3   104.0  104.0  104.0  104.0  104.0  104.0  104.0  '
               '104.0  104.0  104.0\n',
               '-       104.0  104.0  104.0  104.0  104.0  104.0  104.0  '
               '104.0  104.0  104.0\n',
               '-       104.0  104.0  104.0  104.0  104.0  104.0  104.0  '
               '104.0  104.0  104.0\n',
               '-       104.0  104.0  104.0  104.0  104.0  104.0  104.0  '
               '104.0  104.0  104.0\n',
               '-       104.0  104.0  104.0  104.0  104.0  104.0  104.0  '
               '104.0  104.0  104.0\n',
               '-       104.0  104.0  104.0  104.0  104.0  104.0  104.0  '
               '104.0  104.0  104.0\n',
               '-       104.0  104.0  104.0  104.0  104.0  104.0  104.0  '
               '104.0  104.0  104.0\n',
               '-       104.0  104.0  103.9  103.9  103.9  103.8  103.8  '
               '103.7  103.6  103.5\n',
               '-       103.3  103.2  102.9  102.6  102.3  101.8  101.3  '
               '100.6   99.8   98.8\n',
               '-        97.6   96.2   94.6   92.7   90.5   88.0   85.2   '
               '82.1   78.7   75.0\n',
               '-   4   104.0  104.0  104.0  104.0  104.0  104.0  104.0  '
               '104.0  104.0  104.0\n',
               '-       104.0  104.0  104.0  104.0  104.0  104.0  104.0  '
               '104.0  104.0  104.0\n',
               '-       104.0  104.0  104.0  104.0  104.0  104.0  104.0  '
               '104.0  104.0  104.0\n',
               '-       104.0  104.0  104.0  104.0  104.0  104.0  104.0  '
               '104.0  104.0  104.0\n',
               '-       104.0  104.0  104.0  104.0  104.0  104.0  104.0  '
               '104.0  104.0  104.0\n',
               '-       104.0  104.0  104.0  104.0  104.0  104.0  104.0  '
               '104.0  104.0  104.0\n',
               '-       104.0  104.0  104.0  104.0  104.0  104.0  104.0  '
               '104.0  104.0  104.0\n',
               '-       104.0  104.0  103.9  103.9  103.9  103.8  103.8  '
               '103.7  103.6  103.5\n',
               '-       103.3  103.2  102.9  102.6  102.3  101.8  101.3  '
               '100.6   99.8   98.8\n',
               '-        97.6   96.2   94.6   92.7   90.5   88.0   85.2   '
               '82.1   78.7   75.0\n',
               '-   5   104.0  104.0  104.0  104.0  104.0  104.0  104.0  '
               '104.0  104.0  104.0\n',
               '-       104.0  104.0  104.0  104.0  104.0  104.0  104.0  '
               '104.0  104.0  104.0\n',
               '-       104.0  104.0  104.0  104.0  104.0  104.0  104.0  '
               '104.0  104.0  104.0\n',
               '-       104.0  104.0  104.0  104.0  104.0  104.0  104.0  '
               '104.0  104.0  104.0\n',
               '-       104.0  104.0  104.0  104.0  104.0  104.0  104.0  '
               '104.0  104.0  104.0\n',
               '-       104.0  104.0  104.0  104.0  104.0  104.0  104.0  '
               '104.0  104.0  104.0\n',
               '-       104.0  104.0  104.0  104.0  104.0  104.0  104.0  '
               '104.0  104.0  104.0\n',
               '-       104.0  104.0  103.9  103.9  103.9  103.8  103.8  '
               '103.7  103.6  103.5\n',
               '-       103.3  103.2  102.9  102.6  102.3  101.8  101.3  '
               '100.6   99.8   98.8\n',
               '-        97.6   96.2   94.6   92.7   90.5   88.0   85.2   '
               '82.1   78.7   75.0\n',
               '-   6   104.0  104.0  104.0  104.0  104.0  104.0  104.0  '
               '104.0  104.0  104.0\n',
               '-       104.0  104.0  104.0  104.0  104.0  104.0  104.0  '
               '104.0  104.0  104.0\n',
               '-       104.0  104.0  104.0  104.0  104.0  104.0  104.0  '
               '104.0  104.0  104.0\n',
               '-       104.0  104.0  104.0  104.0  104.0  104.0  104.0  '
               '104.0  104.0  104.0\n',
               '-       104.0  104.0  104.0  104.0  104.0  104.0  104.0  '
               '104.0  104.0  104.0\n',
               '-       104.0  104.0  104.0  104.0  104.0  104.0  104.0  '
               '104.0  104.0  104.0\n',
               '-       104.0  104.0  104.0  104.0  104.0  104.0  104.0  '
               '104.0  104.0  104.0\n',
               '-       104.0  104.0  103.9  103.9  103.9  103.8  103.8  '
               '103.7  103.6  103.5\n',
               '-       103.3  103.2  102.9  102.6  102.3  101.8  101.3  '
               '100.6   99.8   98.8\n',
               '-        97.6   96.2   94.6   92.7   90.5   88.0   85.2   '
               '82.1   78.7   75.0\n',
               '-   7   104.0  104.0  104.0  104.0  104.0  104.0  104.0  '
               '104.0  104.0  104.0\n',
               '-       104.0  104.0  104.0  104.0  104.0  104.0  104.0  '
               '104.0  104.0  104.0\n',
               '-       104.0  104.0  104.0  104.0  104.0  104.0  104.0  '
               '104.0  104.0  104.0\n',
               '-       104.0  104.0  104.0  104.0  104.0  104.0  104.0  '
               '104.0  104.0  104.0\n',
               '-       104.0  104.0  104.0  104.0  104.0  104.0  104.0  '
               '104.0  104.0  104.0\n',
               '-       104.0  104.0  104.0  104.0  104.0  104.0  104.0  '
               '104.0  104.0  104.0\n',
               '-       104.0  104.0  104.0  104.0  104.0  104.0  104.0  '
               '104.0  104.0  104.0\n',
               '-       104.0  104.0  103.9  103.9  103.9  103.8  103.8  '
               '103.7  103.6  103.5\n',
               '-       103.3  103.2  102.9  102.6  102.3  101.8  101.3  '
               '100.6   99.8   98.8\n',
               '-        97.6   96.2   94.6   92.7   90.5   88.0   85.2   '
               '82.1   78.7   75.0\n',
               '-1\n',
               '-  VOLUMETRIC BUDGET FOR ENTIRE MODEL AT END OF TIME STEP   '
               '30, STRESS PERIOD   1\n',
               '-  '
               '------------------------------------------------------------------------------\n',
               '-\n',
               '-     CUMULATIVE VOLUMES      L**3       RATES FOR THIS TIME '
               'STEP      L**3/T\n',
               '-     ------------------                 '
               '------------------------\n',
               '-\n',
               '-           IN:                                      IN:\n',
               '-           ---                                      ---\n',
               '-             STORAGE =     3570866.7500               STORAGE '
               '=           0.6722\n',
               '-       CONSTANT HEAD =           0.0000         CONSTANT HEAD '
               '=           0.0000\n',
               '-     HEAD DEP BOUNDS =           0.0000       HEAD DEP BOUNDS '
               '=           0.0000\n',
               '-      STREAM LEAKAGE =           0.0000        STREAM LEAKAGE '
               '=           0.0000\n',
               '-\n',
               '-            TOTAL IN =     3570866.7500              TOTAL IN '
               '=           0.6722\n',
               '-\n',
               '-          OUT:                                     OUT:\n',
               '-          ----                                     ----\n',
               '-             STORAGE =          42.4865               STORAGE '
               '=       3.3975E-06\n',
               '-       CONSTANT HEAD =           0.0000         CONSTANT HEAD '
               '=           0.0000\n',
               '-     HEAD DEP BOUNDS =     3570806.7500       HEAD DEP BOUNDS '
               '=           0.6721\n',
               '-      STREAM LEAKAGE =           0.0000        STREAM LEAKAGE '
               '=           0.0000\n',
               '-\n',
               '-           TOTAL OUT =     3570849.2500             TOTAL OUT '
               '=           0.6721\n',
               '-\n',
               '-            IN - OUT =          17.5000              IN - OUT '
               '=       9.3520E-05\n',
               '-\n',
               '- PERCENT DISCREPANCY =           0.00     PERCENT DISCREPANCY '
               '=           0.01\n',
               '-\n',
               '-\n',
               '-\n',
               '-\n',
               '-\n',
               '-\n',
               '-         TIME SUMMARY AT END OF TIME STEP   30 IN STRESS '
               'PERIOD    1\n',
               '-                    SECONDS     MINUTES      HOURS       '
               'DAYS        YEARS\n',
               '-                    '
               '-----------------------------------------------------------\n',
               '-   TIME STEP LENGTH 2.49961E+05  4166.0      69.434      '
               '2.8931     7.92080E-03\n',
               '- STRESS PERIOD TIME 2.59200E+06  43200.      720.00      '
               '30.000     8.21355E-02\n',
               '-         TOTAL TIME 2.59200E+06  43200.      720.00      '
               '30.000     8.21355E-02\n',
               '-1\n',
               '-1\n',
               '-                            STRESS PERIOD NO.    2, LENGTH '
               '=   2592000.    \n',
               '-                            '
               '-----------------------------------------------\n',
               '-\n',
               '-                              NUMBER OF TIME STEPS =    30\n',
               '-\n',
               '-                               MULTIPLIER FOR DELT =     '
               '1.100\n',
               '-\n',
               '-                            INITIAL TIME STEP SIZE =   '
               '15757.40    \n',
               '-\n',
               '- REUSING NON-PARAMETER GHB CELLS FROM LAST STRESS PERIOD\n',
               '-\n',
               '-      7 GHB CELLS\n',
               '- \n',
               '- SOLVING FOR HEAD \n',
               '-\n',
               '- NO OUTPUT CONTROL FOR STRESS PERIOD    2   TIME STEP    1\n',
               '- \n',
               '- SOLVING FOR HEAD \n',
               '-\n',
               '- NO OUTPUT CONTROL FOR STRESS PERIOD    2   TIME STEP    2\n',
               '- \n',
               '- SOLVING FOR HEAD \n',
               '-\n',
               '- NO OUTPUT CONTROL FOR STRESS PERIOD    2   TIME STEP    3\n',
               '- \n',
               '- SOLVING FOR HEAD \n',
               '-\n',
               '- NO OUTPUT CONTROL FOR STRESS PERIOD    2   TIME STEP    4\n',
               '- \n',
               '- SOLVING FOR HEAD \n',
               '-\n',
               '- NO OUTPUT CONTROL FOR STRESS PERIOD    2   TIME STEP    5\n',
               '- \n',
               '- SOLVING FOR HEAD \n',
               '-\n',
               '- NO OUTPUT CONTROL FOR STRESS PERIOD    2   TIME STEP    6\n',
               '- \n',
               '- SOLVING FOR HEAD \n',
               '-\n',
               '- NO OUTPUT CONTROL FOR STRESS PERIOD    2   TIME STEP    7\n',
               '- \n',
               '- SOLVING FOR HEAD \n',
               '-\n',
               '- NO OUTPUT CONTROL FOR STRESS PERIOD    2   TIME STEP    8\n',
               '- \n',
               '- SOLVING FOR HEAD \n',
               '-\n',
               '- NO OUTPUT CONTROL FOR STRESS PERIOD    2   TIME STEP    9\n',
               '- \n',
               '- SOLVING FOR HEAD \n',
               '-\n',
               '- NO OUTPUT CONTROL FOR STRESS PERIOD    2   TIME STEP   10\n',
               '- \n',
               '- SOLVING FOR HEAD \n',
               '-\n',
               '- NO OUTPUT CONTROL FOR STRESS PERIOD    2   TIME STEP   11\n',
               '- \n',
               '- SOLVING FOR HEAD \n',
               '-\n',
               '- NO OUTPUT CONTROL FOR STRESS PERIOD    2   TIME STEP   12\n',
               '- \n',
               '- SOLVING FOR HEAD \n',
               '-\n',
               '- NO OUTPUT CONTROL FOR STRESS PERIOD    2   TIME STEP   13\n',
               '- \n',
               '- SOLVING FOR HEAD \n',
               '-\n',
               '- NO OUTPUT CONTROL FOR STRESS PERIOD    2   TIME STEP   14\n',
               '- \n',
               '- SOLVING FOR HEAD \n',
               '-\n',
               '- NO OUTPUT CONTROL FOR STRESS PERIOD    2   TIME STEP   15\n',
               '- \n',
               '- SOLVING FOR HEAD \n',
               '-\n',
               '- NO OUTPUT CONTROL FOR STRESS PERIOD    2   TIME STEP   16\n',
               '- \n',
               '- SOLVING FOR HEAD \n',
               '-\n',
               '- NO OUTPUT CONTROL FOR STRESS PERIOD    2   TIME STEP   17\n',
               '- \n',
               '- SOLVING FOR HEAD \n',
               '-\n',
               '- NO OUTPUT CONTROL FOR STRESS PERIOD    2   TIME STEP   18\n',
               '- \n',
               '- SOLVING FOR HEAD \n',
               '-\n',
               '- NO OUTPUT CONTROL FOR STRESS PERIOD    2   TIME STEP   19\n',
               '- \n',
               '- SOLVING FOR HEAD \n',
               '-\n',
               '- NO OUTPUT CONTROL FOR STRESS PERIOD    2   TIME STEP   20\n',
               '- \n',
               '- SOLVING FOR HEAD \n',
               '-\n',
               '- NO OUTPUT CONTROL FOR STRESS PERIOD    2   TIME STEP   21\n',
               '- \n',
               '- SOLVING FOR HEAD \n',
               '-\n',
               '- NO OUTPUT CONTROL FOR STRESS PERIOD    2   TIME STEP   22\n',
               '- \n',
               '- SOLVING FOR HEAD \n',
               '-\n',
               '- NO OUTPUT CONTROL FOR STRESS PERIOD    2   TIME STEP   23\n',
               '- \n',
               '- SOLVING FOR HEAD \n',
               '-\n',
               '- NO OUTPUT CONTROL FOR STRESS PERIOD    2   TIME STEP   24\n',
               '- \n',
               '- SOLVING FOR HEAD \n',
               '-\n',
               '- NO OUTPUT CONTROL FOR STRESS PERIOD    2   TIME STEP   25\n',
               '- \n',
               '- SOLVING FOR HEAD \n',
               '-\n',
               '- NO OUTPUT CONTROL FOR STRESS PERIOD    2   TIME STEP   26\n',
               '- \n',
               '- SOLVING FOR HEAD \n',
               '-\n',
               '- NO OUTPUT CONTROL FOR STRESS PERIOD    2   TIME STEP   27\n',
               '- \n',
               '- SOLVING FOR HEAD \n',
               '-\n',
               '- NO OUTPUT CONTROL FOR STRESS PERIOD    2   TIME STEP   28\n',
               '- \n',
               '- SOLVING FOR HEAD \n',
               '-\n',
               '- NO OUTPUT CONTROL FOR STRESS PERIOD    2   TIME STEP   29\n',
               '- \n',
               '- SOLVING FOR HEAD \n',
               '-\n',
               '- NO OUTPUT CONTROL FOR STRESS PERIOD    2   TIME STEP   30\n',
               '-\n',
               '-\n',
               '-\n',
               '- STREAM LISTING     PERIOD      2   STEP       30\n',
               '-\n',
               '- LAYER ROW COL. STREAM  RCH.   FLOW INTO    STREAM     FLOW '
               'OUT OF   OVRLND.    DIRECT     STREAM      STREAM      '
               'STREAM     STREAM  STREAMBED   FLOW TO   CHNG. UNSAT. \n',
               '-                SEG.NO.  NO.   STRM. RCH.    LOSS       STRM. '
               'RCH.   RUNOFF     PRECIP       ET         HEAD        '
               'DEPTH      WIDTH  CONDCTNC.   WAT. TAB.\n',
               '-\n',
               '-   1    4    1     1     1    2.5330E+00  1.0459E-03   '
               '2.5320E+00  0.000E+00  0.000E+00  0.000E+00  1.41036E+02  '
               '1.186E+00  3.231E+00  6.205E-04  0.000E+00  1.046E-03\n',
               '-   1    4    2     1     2    2.5320E+00  1.0456E-03   '
               '2.5309E+00  0.000E+00  0.000E+00  0.000E+00  1.40735E+02  '
               '1.185E+00  3.231E+00  6.204E-04  0.000E+00  1.046E-03\n',
               '-   1    4    3     1     3    2.5309E+00  1.0453E-03   '
               '2.5299E+00  0.000E+00  0.000E+00  0.000E+00  1.40435E+02  '
               '1.185E+00  3.230E+00  6.203E-04  0.000E+00  1.045E-03\n',
               '-   1    4    4     1     4    2.5299E+00  1.0450E-03   '
               '2.5288E+00  0.000E+00  0.000E+00  0.000E+00  1.40135E+02  '
               '1.185E+00  3.230E+00  6.203E-04  0.000E+00  1.045E-03\n',
               '-   1    4    5     1     5    2.5288E+00  1.0447E-03   '
               '2.5278E+00  0.000E+00  0.000E+00  0.000E+00  1.39835E+02  '
               '1.185E+00  3.230E+00  6.202E-04  0.000E+00  1.045E-03\n',
               '-   1    4    6     1     6    2.5278E+00  1.0444E-03   '
               '2.5267E+00  0.000E+00  0.000E+00  0.000E+00  1.39534E+02  '
               '1.184E+00  3.229E+00  6.201E-04  0.000E+00  1.044E-03\n',
               '-   1    4    7     1     7    2.5267E+00  1.0441E-03   '
               '2.5257E+00  0.000E+00  0.000E+00  0.000E+00  1.39234E+02  '
               '1.184E+00  3.229E+00  6.200E-04  0.000E+00  1.044E-03\n',
               '-   1    4    8     1     8    2.5257E+00  1.0438E-03   '
               '2.5246E+00  0.000E+00  0.000E+00  0.000E+00  1.38934E+02  '
               '1.184E+00  3.229E+00  6.199E-04  0.000E+00  1.044E-03\n',
               '-   1    4    9     1     9    2.5246E+00  1.0435E-03   '
               '2.5236E+00  0.000E+00  0.000E+00  0.000E+00  1.38634E+02  '
               '1.184E+00  3.229E+00  6.198E-04  0.000E+00  1.044E-03\n',
               '-   1    4   10     1    10    2.5236E+00  1.0432E-03   '
               '2.5226E+00  0.000E+00  0.000E+00  0.000E+00  1.38333E+02  '
               '1.183E+00  3.228E+00  6.198E-04  0.000E+00  1.043E-03\n',
               '-   1    4   11     1    11    2.5226E+00  1.0429E-03   '
               '2.5215E+00  0.000E+00  0.000E+00  0.000E+00  1.38033E+02  '
               '1.183E+00  3.228E+00  6.197E-04  0.000E+00  1.043E-03\n',
               '-   1    4   12     1    12    2.5215E+00  1.0426E-03   '
               '2.5205E+00  0.000E+00  0.000E+00  0.000E+00  1.37733E+02  '
               '1.183E+00  3.228E+00  6.196E-04  0.000E+00  1.043E-03\n',
               '-   1    4   13     1    13    2.5205E+00  1.0424E-03   '
               '2.5194E+00  0.000E+00  0.000E+00  0.000E+00  1.37433E+02  '
               '1.183E+00  3.227E+00  6.195E-04  0.000E+00  1.042E-03\n',
               '-   1    4   14     1    14    2.5194E+00  1.0421E-03   '
               '2.5184E+00  0.000E+00  0.000E+00  0.000E+00  1.37132E+02  '
               '1.182E+00  3.227E+00  6.194E-04  0.000E+00  1.042E-03\n',
               '-   1    4   15     1    15    2.5184E+00  1.0418E-03   '
               '2.5173E+00  0.000E+00  0.000E+00  0.000E+00  1.36832E+02  '
               '1.182E+00  3.227E+00  6.193E-04  0.000E+00  1.042E-03\n',
               '-   1    4   16     1    16    2.5173E+00  1.0415E-03   '
               '2.5163E+00  0.000E+00  0.000E+00  0.000E+00  1.36532E+02  '
               '1.182E+00  3.226E+00  6.193E-04  0.000E+00  1.041E-03\n',
               '-   1    4   17     1    17    2.5163E+00  1.0412E-03   '
               '2.5153E+00  0.000E+00  0.000E+00  0.000E+00  1.36232E+02  '
               '1.182E+00  3.226E+00  6.192E-04  0.000E+00  1.041E-03\n',
               '-   1    4   18     1    18    2.5153E+00  1.0409E-03   '
               '2.5142E+00  0.000E+00  0.000E+00  0.000E+00  1.35931E+02  '
               '1.181E+00  3.226E+00  6.191E-04  0.000E+00  1.041E-03\n',
               '-   1    4   19     1    19    2.5142E+00  1.0406E-03   '
               '2.5132E+00  0.000E+00  0.000E+00  0.000E+00  1.35631E+02  '
               '1.181E+00  3.226E+00  6.190E-04  0.000E+00  1.041E-03\n',
               '-   1    4   20     1    20    2.5132E+00  1.0403E-03   '
               '2.5121E+00  0.000E+00  0.000E+00  0.000E+00  1.35331E+02  '
               '1.181E+00  3.225E+00  6.189E-04  0.000E+00  1.040E-03\n',
               '-   1    4   21     1    21    2.5121E+00  1.0400E-03   '
               '2.5111E+00  0.000E+00  0.000E+00  0.000E+00  1.35031E+02  '
               '1.181E+00  3.225E+00  6.189E-04  0.000E+00  1.040E-03\n',
               '-   1    4   22     1    22    2.5111E+00  1.0397E-03   '
               '2.5101E+00  0.000E+00  0.000E+00  0.000E+00  1.34730E+02  '
               '1.180E+00  3.225E+00  6.188E-04  0.000E+00  1.040E-03\n',
               '-   1    4   23     1    23    2.5101E+00  1.0394E-03   '
               '2.5090E+00  0.000E+00  0.000E+00  0.000E+00  1.34430E+02  '
               '1.180E+00  3.224E+00  6.187E-04  0.000E+00  1.039E-03\n',
               '-   1    4   24     1    24    2.5090E+00  1.0391E-03   '
               '2.5080E+00  0.000E+00  0.000E+00  0.000E+00  1.34130E+02  '
               '1.180E+00  3.224E+00  6.186E-04  0.000E+00  1.039E-03\n',
               '-   1    4   25     1    25    2.5080E+00  1.0388E-03   '
               '2.5069E+00  0.000E+00  0.000E+00  0.000E+00  1.33829E+02  '
               '1.180E+00  3.224E+00  6.185E-04  0.000E+00  1.039E-03\n',
               '-   1    4   26     1    26    2.5069E+00  1.0385E-03   '
               '2.5059E+00  0.000E+00  0.000E+00  0.000E+00  1.33529E+02  '
               '1.179E+00  3.223E+00  6.184E-04  0.000E+00  1.039E-03\n',
               '-   1    4   27     1    27    2.5059E+00  1.0382E-03   '
               '2.5049E+00  0.000E+00  0.000E+00  0.000E+00  1.33229E+02  '
               '1.179E+00  3.223E+00  6.184E-04  0.000E+00  1.038E-03\n',
               '-   1    4   28     1    28    2.5049E+00  1.0379E-03   '
               '2.5038E+00  0.000E+00  0.000E+00  0.000E+00  1.32929E+02  '
               '1.179E+00  3.223E+00  6.183E-04  1.078E-05  1.027E-03\n',
               '-   1    4   29     1    29    2.5038E+00  1.0376E-03   '
               '2.5028E+00  0.000E+00  0.000E+00  0.000E+00  1.32628E+02  '
               '1.178E+00  3.222E+00  6.182E-04  1.659E-04  8.718E-04\n',
               '-   1    4   30     1    30    2.5028E+00  1.0373E-03   '
               '2.5018E+00  0.000E+00  0.000E+00  0.000E+00  1.32328E+02  '
               '1.178E+00  3.222E+00  6.181E-04  3.211E-04  7.163E-04\n',
               '-   1    4   31     1    31    2.5018E+00  1.0370E-03   '
               '2.5007E+00  0.000E+00  0.000E+00  0.000E+00  1.32028E+02  '
               '1.178E+00  3.222E+00  6.180E-04  4.764E-04  5.607E-04\n',
               '-   1    4   32     1    32    2.5007E+00  1.0367E-03   '
               '2.4997E+00  0.000E+00  0.000E+00  0.000E+00  1.31728E+02  '
               '1.178E+00  3.222E+00  6.179E-04  6.317E-04  4.051E-04\n',
               '-   1    4   33     1    33    2.4997E+00  1.0365E-03   '
               '2.4986E+00  0.000E+00  0.000E+00  0.000E+00  1.31427E+02  '
               '1.177E+00  3.221E+00  6.179E-04  7.870E-04  2.495E-04\n',
               '-   1    4   34     1    34    2.4986E+00  1.0362E-03   '
               '2.4976E+00  0.000E+00  0.000E+00  0.000E+00  1.31127E+02  '
               '1.177E+00  3.221E+00  6.178E-04  9.423E-04  9.387E-05\n',
               '-   1    4   35     1    35    2.4976E+00  1.0359E-03   '
               '2.4966E+00  0.000E+00  0.000E+00  0.000E+00  1.30827E+02  '
               '1.177E+00  3.221E+00  6.177E-04  1.043E-03 -6.977E-06\n',
               '-   1    4   36     1    36    2.4966E+00  1.0356E-03   '
               '2.4955E+00  0.000E+00  0.000E+00  0.000E+00  1.30527E+02  '
               '1.177E+00  3.220E+00  6.176E-04  1.043E-03 -6.944E-06\n',
               '-   1    4   37     1    37    2.4955E+00  1.0353E-03   '
               '2.4945E+00  0.000E+00  0.000E+00  0.000E+00  1.30226E+02  '
               '1.176E+00  3.220E+00  6.175E-04  1.042E-03 -6.756E-06\n',
               '-   1    4   38     1    38    2.4945E+00  1.0350E-03   '
               '2.4935E+00  0.000E+00  0.000E+00  0.000E+00  1.29926E+02  '
               '1.176E+00  3.220E+00  6.175E-04  1.041E-03 -6.510E-06\n',
               '-   1    4   39     1    39    2.4935E+00  1.0347E-03   '
               '2.4924E+00  0.000E+00  0.000E+00  0.000E+00  1.29626E+02  '
               '1.176E+00  3.219E+00  6.174E-04  1.041E-03 -6.232E-06\n',
               '-   1    4   40     1    40    2.4924E+00  1.0344E-03   '
               '2.4914E+00  0.000E+00  0.000E+00  0.000E+00  1.29326E+02  '
               '1.176E+00  3.219E+00  6.173E-04  1.040E-03 -5.945E-06\n',
               '-   1    4   41     1    41    2.4914E+00  1.0341E-03   '
               '2.4904E+00  0.000E+00  0.000E+00  0.000E+00  1.29025E+02  '
               '1.175E+00  3.219E+00  6.172E-04  1.040E-03 -5.739E-06\n',
               '-   1    4   42     1    42    2.4904E+00  1.0338E-03   '
               '2.4893E+00  0.000E+00  0.000E+00  0.000E+00  1.28725E+02  '
               '1.175E+00  3.219E+00  6.171E-04  1.040E-03 -5.737E-06\n',
               '-   1    4   43     1    43    2.4893E+00  1.0335E-03   '
               '2.4883E+00  0.000E+00  0.000E+00  0.000E+00  1.28425E+02  '
               '1.175E+00  3.218E+00  6.170E-04  1.039E-03 -5.740E-06\n',
               '-   1    4   44     1    44    2.4883E+00  1.0332E-03   '
               '2.4873E+00  0.000E+00  0.000E+00  0.000E+00  1.28125E+02  '
               '1.175E+00  3.218E+00  6.170E-04  1.039E-03 -5.722E-06\n',
               '-   1    4   45     1    45    2.4873E+00  1.0329E-03   '
               '2.4862E+00  0.000E+00  0.000E+00  0.000E+00  1.27824E+02  '
               '1.174E+00  3.218E+00  6.169E-04  1.039E-03 -5.690E-06\n',
               '-   1    4   46     1    46    2.4862E+00  1.0326E-03   '
               '2.4852E+00  0.000E+00  0.000E+00  0.000E+00  1.27524E+02  '
               '1.174E+00  3.217E+00  6.168E-04  1.038E-03 -5.654E-06\n',
               '-   1    4   47     1    47    2.4852E+00  1.0323E-03   '
               '2.4842E+00  0.000E+00  0.000E+00  0.000E+00  1.27224E+02  '
               '1.174E+00  3.217E+00  6.167E-04  1.038E-03 -5.634E-06\n',
               '-   1    4   48     1    48    2.4842E+00  1.0320E-03   '
               '2.4831E+00  0.000E+00  0.000E+00  0.000E+00  1.26924E+02  '
               '1.174E+00  3.217E+00  6.166E-04  1.038E-03 -5.623E-06\n',
               '-   1    4   49     1    49    2.4831E+00  1.0318E-03   '
               '2.4821E+00  0.000E+00  0.000E+00  0.000E+00  1.26623E+02  '
               '1.173E+00  3.216E+00  6.165E-04  1.037E-03 -5.604E-06\n',
               '-   1    4   50     1    50    2.4821E+00  1.0315E-03   '
               '2.4811E+00  0.000E+00  0.000E+00  0.000E+00  1.26323E+02  '
               '1.173E+00  3.216E+00  6.165E-04  1.037E-03 -5.574E-06\n',
               '-   1    4   51     1    51    2.4811E+00  1.0312E-03   '
               '2.4800E+00  0.000E+00  0.000E+00  0.000E+00  1.26023E+02  '
               '1.173E+00  3.216E+00  6.164E-04  1.037E-03 -5.533E-06\n',
               '-   1    4   52     1    52    2.4800E+00  1.0309E-03   '
               '2.4790E+00  0.000E+00  0.000E+00  0.000E+00  1.25723E+02  '
               '1.173E+00  3.216E+00  6.163E-04  1.036E-03 -5.484E-06\n',
               '-   1    4   53     1    53    2.4790E+00  1.0306E-03   '
               '2.4780E+00  0.000E+00  0.000E+00  0.000E+00  1.25422E+02  '
               '1.172E+00  3.215E+00  6.162E-04  1.036E-03 -5.424E-06\n',
               '-   1    4   54     1    54    2.4780E+00  1.0303E-03   '
               '2.4769E+00  0.000E+00  0.000E+00  0.000E+00  1.25122E+02  '
               '1.172E+00  3.215E+00  6.161E-04  1.036E-03 -5.345E-06\n',
               '-   1    4   55     1    55    2.4769E+00  1.0300E-03   '
               '2.4759E+00  0.000E+00  0.000E+00  0.000E+00  1.24822E+02  '
               '1.172E+00  3.215E+00  6.161E-04  1.035E-03 -5.241E-06\n',
               '-   1    4   56     1    56    2.4759E+00  1.0297E-03   '
               '2.4749E+00  0.000E+00  0.000E+00  0.000E+00  1.24522E+02  '
               '1.172E+00  3.214E+00  6.160E-04  1.035E-03 -5.107E-06\n',
               '-   1    4   57     1    57    2.4749E+00  1.0294E-03   '
               '2.4739E+00  0.000E+00  0.000E+00  0.000E+00  1.24221E+02  '
               '1.171E+00  3.214E+00  6.159E-04  1.034E-03 -4.936E-06\n',
               '-   1    4   58     1    58    2.4739E+00  1.0291E-03   '
               '2.4728E+00  0.000E+00  0.000E+00  0.000E+00  1.23921E+02  '
               '1.171E+00  3.214E+00  6.158E-04  1.034E-03 -4.718E-06\n',
               '-   1    4   59     1    59    2.4728E+00  1.0288E-03   '
               '2.4718E+00  0.000E+00  0.000E+00  0.000E+00  1.23621E+02  '
               '1.171E+00  3.213E+00  6.157E-04  1.033E-03 -4.442E-06\n',
               '-   1    4   60     1    60    2.4718E+00  1.0285E-03   '
               '2.4708E+00  0.000E+00  0.000E+00  0.000E+00  1.23321E+02  '
               '1.171E+00  3.213E+00  6.156E-04  1.033E-03 -4.094E-06\n',
               '-   1    4   61     1    61    2.4708E+00  1.0282E-03   '
               '2.4697E+00  0.000E+00  0.000E+00  0.000E+00  1.23020E+02  '
               '1.170E+00  3.213E+00  6.156E-04  1.032E-03 -3.658E-06\n',
               '-   1    4   62     1    62    2.4697E+00  1.0280E-03   '
               '2.4687E+00  0.000E+00  0.000E+00  0.000E+00  1.22720E+02  '
               '1.170E+00  3.213E+00  6.155E-04  1.031E-03 -3.114E-06\n',
               '-   1    4   63     1    63    2.4687E+00  1.0277E-03   '
               '2.4677E+00  0.000E+00  0.000E+00  0.000E+00  1.22420E+02  '
               '1.170E+00  3.212E+00  6.154E-04  1.030E-03 -2.442E-06\n',
               '-   1    4   64     1    64    2.4677E+00  1.0274E-03   '
               '2.4667E+00  0.000E+00  0.000E+00  0.000E+00  1.22120E+02  '
               '1.170E+00  3.212E+00  6.153E-04  1.029E-03 -1.614E-06\n',
               '-   1    4   65     1    65    2.4667E+00  1.0271E-03   '
               '2.4656E+00  0.000E+00  0.000E+00  0.000E+00  1.21819E+02  '
               '1.169E+00  3.212E+00  6.152E-04  1.028E-03 -6.021E-07\n',
               '-   1    4   66     1    66    2.4656E+00  1.0268E-03   '
               '2.4646E+00  0.000E+00  0.000E+00  0.000E+00  1.21519E+02  '
               '1.169E+00  3.211E+00  6.151E-04  1.026E-03  6.288E-07\n',
               '-   1    4   67     1    67    2.4646E+00  1.0265E-03   '
               '2.4636E+00  0.000E+00  0.000E+00  0.000E+00  1.21219E+02  '
               '1.169E+00  3.211E+00  6.151E-04  1.024E-03  2.116E-06\n',
               '-   1    4   68     1    68    2.4636E+00  1.0262E-03   '
               '2.4626E+00  0.000E+00  0.000E+00  0.000E+00  1.20919E+02  '
               '1.169E+00  3.211E+00  6.150E-04  1.022E-03  3.901E-06\n',
               '-   1    4   69     1    69    2.4626E+00  1.0259E-03   '
               '2.4615E+00  0.000E+00  0.000E+00  0.000E+00  1.20618E+02  '
               '1.168E+00  3.210E+00  6.149E-04  1.020E-03  6.030E-06\n',
               '-   1    4   70     1    70    2.4615E+00  1.0256E-03   '
               '2.4605E+00  0.000E+00  0.000E+00  0.000E+00  1.20318E+02  '
               '1.168E+00  3.210E+00  6.148E-04  1.017E-03  8.549E-06\n',
               '-   1    4   71     1    71    2.4605E+00  1.0253E-03   '
               '2.4595E+00  0.000E+00  0.000E+00  0.000E+00  1.20018E+02  '
               '1.168E+00  3.210E+00  6.147E-04  1.014E-03  1.151E-05\n',
               '-   1    4   72     1    72    2.4595E+00  1.0250E-03   '
               '2.4585E+00  0.000E+00  0.000E+00  0.000E+00  1.19718E+02  '
               '1.168E+00  3.210E+00  6.147E-04  1.010E-03  1.497E-05\n',
               '-   1    4   73     1    73    2.4585E+00  1.0247E-03   '
               '2.4574E+00  0.000E+00  0.000E+00  0.000E+00  1.19417E+02  '
               '1.167E+00  3.209E+00  6.146E-04  1.006E-03  1.896E-05\n',
               '-   1    4   74     1    74    2.4574E+00  1.0244E-03   '
               '2.4564E+00  0.000E+00  0.000E+00  0.000E+00  1.19117E+02  '
               '1.167E+00  3.209E+00  6.145E-04  1.001E-03  2.355E-05\n',
               '-   1    4   75     1    75    2.4564E+00  1.0242E-03   '
               '2.4554E+00  0.000E+00  0.000E+00  0.000E+00  1.18817E+02  '
               '1.167E+00  3.209E+00  6.144E-04  9.954E-04  2.877E-05\n',
               '-   1    4   76     1    76    2.4554E+00  1.0239E-03   '
               '2.4544E+00  0.000E+00  0.000E+00  0.000E+00  1.18517E+02  '
               '1.167E+00  3.208E+00  6.143E-04  9.892E-04  3.466E-05\n',
               '-   1    4   77     1    77    2.4544E+00  1.0236E-03   '
               '2.4533E+00  0.000E+00  0.000E+00  0.000E+00  1.18216E+02  '
               '1.166E+00  3.208E+00  6.142E-04  9.824E-04  4.122E-05\n',
               '-   1    4   78     1    78    2.4533E+00  1.0233E-03   '
               '2.4523E+00  0.000E+00  0.000E+00  0.000E+00  1.17916E+02  '
               '1.166E+00  3.208E+00  6.142E-04  9.748E-04  4.847E-05\n',
               '-   1    4   79     1    79    2.4523E+00  1.0230E-03   '
               '2.4513E+00  0.000E+00  0.000E+00  0.000E+00  1.17616E+02  '
               '1.166E+00  3.207E+00  6.141E-04  9.666E-04  5.638E-05\n',
               '-   1    4   80     1    80    2.4513E+00  1.0227E-03   '
               '2.4503E+00  0.000E+00  0.000E+00  0.000E+00  1.17316E+02  '
               '1.166E+00  3.207E+00  6.140E-04  9.578E-04  6.489E-05\n',
               '-   1    4   81     1    81    2.4503E+00  1.0224E-03   '
               '2.4492E+00  0.000E+00  0.000E+00  0.000E+00  1.17015E+02  '
               '1.165E+00  3.207E+00  6.139E-04  9.485E-04  7.394E-05\n',
               '-   1    4   82     1    82    2.4492E+00  1.0221E-03   '
               '2.4482E+00  0.000E+00  0.000E+00  0.000E+00  1.16715E+02  '
               '1.165E+00  3.207E+00  6.138E-04  9.387E-04  8.339E-05\n',
               '-   1    4   83     1    83    2.4482E+00  1.0218E-03   '
               '2.4472E+00  0.000E+00  0.000E+00  0.000E+00  1.16415E+02  '
               '1.165E+00  3.206E+00  6.138E-04  9.287E-04  9.308E-05\n',
               '-   1    4   84     1    84    2.4472E+00  1.0215E-03   '
               '2.4462E+00  0.000E+00  0.000E+00  0.000E+00  1.16115E+02  '
               '1.165E+00  3.206E+00  6.137E-04  9.187E-04  1.028E-04\n',
               '-   1    4   85     1    85    2.4462E+00  1.0212E-03   '
               '2.4452E+00  0.000E+00  0.000E+00  0.000E+00  1.15814E+02  '
               '1.164E+00  3.206E+00  6.136E-04  9.089E-04  1.124E-04\n',
               '-   1    4   86     1    86    2.4452E+00  1.0210E-03   '
               '2.4441E+00  0.000E+00  0.000E+00  0.000E+00  1.15514E+02  '
               '1.164E+00  3.205E+00  6.135E-04  8.996E-04  1.214E-04\n',
               '-   1    4   87     1    87    2.4441E+00  1.0207E-03   '
               '2.4431E+00  0.000E+00  0.000E+00  0.000E+00  1.15214E+02  '
               '1.164E+00  3.205E+00  6.134E-04  8.911E-04  1.296E-04\n',
               '-   1    4   88     1    88    2.4431E+00  1.0204E-03   '
               '2.4421E+00  0.000E+00  0.000E+00  0.000E+00  1.14914E+02  '
               '1.164E+00  3.205E+00  6.133E-04  8.838E-04  1.366E-04\n',
               '-   1    4   89     1    89    2.4421E+00  1.0201E-03   '
               '2.4411E+00  0.000E+00  0.000E+00  0.000E+00  1.14613E+02  '
               '1.163E+00  3.204E+00  6.133E-04  8.781E-04  1.420E-04\n',
               '-   1    4   90     1    90    2.4411E+00  1.0198E-03   '
               '2.4401E+00  0.000E+00  0.000E+00  0.000E+00  1.14313E+02  '
               '1.163E+00  3.204E+00  6.132E-04  8.744E-04  1.454E-04\n',
               '-   1    4   91     1    91    2.4401E+00  1.0195E-03   '
               '2.4390E+00  0.000E+00  0.000E+00  0.000E+00  1.14013E+02  '
               '1.163E+00  3.204E+00  6.131E-04  8.732E-04  1.463E-04\n',
               '-   1    4   92     1    92    2.4390E+00  1.0192E-03   '
               '2.4380E+00  0.000E+00  0.000E+00  0.000E+00  1.13713E+02  '
               '1.163E+00  3.203E+00  6.130E-04  8.748E-04  1.444E-04\n',
               '-   1    4   93     1    93    2.4380E+00  1.0189E-03   '
               '2.4370E+00  0.000E+00  0.000E+00  0.000E+00  1.13412E+02  '
               '1.162E+00  3.203E+00  6.129E-04  8.797E-04  1.393E-04\n',
               '-   1    4   94     1    94    2.4370E+00  1.0186E-03   '
               '2.4360E+00  0.000E+00  0.000E+00  0.000E+00  1.13112E+02  '
               '1.162E+00  3.203E+00  6.129E-04  8.882E-04  1.305E-04\n',
               '-   1    4   95     1    95    2.4360E+00  1.0183E-03   '
               '2.4350E+00  0.000E+00  0.000E+00  0.000E+00  1.12812E+02  '
               '1.162E+00  3.203E+00  6.128E-04  9.011E-04  1.173E-04\n',
               '-   1    4   96     1    96    2.4350E+00  1.0181E-03   '
               '2.4339E+00  0.000E+00  0.000E+00  0.000E+00  1.12512E+02  '
               '1.162E+00  3.202E+00  6.127E-04  4.329E-04  5.851E-04\n',
               '-   1    4   97     1    97    2.4339E+00  1.0178E-03   '
               '2.4329E+00  0.000E+00  0.000E+00  0.000E+00  1.12211E+02  '
               '1.161E+00  3.202E+00  6.126E-04  0.000E+00  1.018E-03\n',
               '-   1    4   98     1    98    2.4329E+00  1.0175E-03   '
               '2.4319E+00  0.000E+00  0.000E+00  0.000E+00  1.11911E+02  '
               '1.161E+00  3.202E+00  6.125E-04  0.000E+00  1.017E-03\n',
               '-   1    4   99     1    99    2.4319E+00  1.0172E-03   '
               '2.4309E+00  0.000E+00  0.000E+00  0.000E+00  1.11611E+02  '
               '1.161E+00  3.201E+00  6.124E-04  0.000E+00  1.017E-03\n',
               '-   1    4  100     1   100    2.4309E+00  1.0169E-03   '
               '2.4299E+00  0.000E+00  0.000E+00  0.000E+00  1.11311E+02  '
               '1.161E+00  3.201E+00  6.124E-04  0.000E+00  1.017E-03\n',
               '-\n',
               '-\n',
               '-\n',
               '-1\n',
               '-  VOLUMETRIC BUDGET FOR UNSATURATED ZONE BENEATH STREAMS AT '
               'END OF TIME STEP    30 STRESS PERIOD   2\n',
               '-  '
               '------------------------------------------------------------------------------------------------\n',
               '-\n',
               '-    CUMULATIVE VOLUMES             L**3    RATES FOR THIS '
               'TIME STEP         L**3/T\n',
               '-    ------------------                     '
               '------------------------\n',
               '-\n',
               '-\n',
               '-          STREAM LOSS =       355608.1250            STREAM '
               'LOSS =            0.1031\n',
               '-    CHANGE IN STORAGE =       283732.1875      CHANGE IN '
               'STORAGE =        3.8739E-02\n',
               '-       RECHARGE TO GW =        71875.7031         RECHARGE TO '
               'GW =        6.4395E-02\n',
               '-\n',
               '-             TOTAL IN =       355608.1250               TOTAL '
               'IN =            0.1031\n',
               '-\n',
               '-            TOTAL OUT =       355607.8750              TOTAL '
               'OUT =            0.1031\n',
               '-\n',
               '-             IN - OUT =            0.2500               IN - '
               'OUT =        1.4901E-08\n',
               '-\n',
               '-  PERCENT DISCREPANCY =            0.00      PERCENT '
               'DISCREPANCY =             0.00\n',
               '-\n',
               '-\n',
               '-\n',
               '-1\n',
               '-  VOLUMETRIC BUDGET FOR ENTIRE MODEL AT END OF TIME STEP   '
               '30, STRESS PERIOD   2\n',
               '-  '
               '------------------------------------------------------------------------------\n',
               '-\n',
               '-     CUMULATIVE VOLUMES      L**3       RATES FOR THIS TIME '
               'STEP      L**3/T\n',
               '-     ------------------                 '
               '------------------------\n',
               '-\n',
               '-           IN:                                      IN:\n',
               '-           ---                                      ---\n',
               '-             STORAGE =     4967093.5000               STORAGE '
               '=           0.4515\n',
               '-       CONSTANT HEAD =           0.0000         CONSTANT HEAD '
               '=           0.0000\n',
               '-     HEAD DEP BOUNDS =           0.0000       HEAD DEP BOUNDS '
               '=           0.0000\n',
               '-      STREAM LEAKAGE =       71875.7109        STREAM LEAKAGE '
               '=       6.4395E-02\n',
               '-\n',
               '-            TOTAL IN =     5038969.0000              TOTAL IN '
               '=           0.5159\n',
               '-\n',
               '-          OUT:                                     OUT:\n',
               '-          ----                                     ----\n',
               '-             STORAGE =       24165.6289               STORAGE '
               '=       3.1621E-02\n',
               '-       CONSTANT HEAD =           0.0000         CONSTANT HEAD '
               '=           0.0000\n',
               '-     HEAD DEP BOUNDS =     5014780.0000       HEAD DEP BOUNDS '
               '=           0.4841\n',
               '-      STREAM LEAKAGE =           0.0000        STREAM LEAKAGE '
               '=           0.0000\n',
               '-\n',
               '-           TOTAL OUT =     5038945.5000             TOTAL OUT '
               '=           0.5157\n',
               '-\n',
               '-            IN - OUT =          23.5000              IN - OUT '
               '=       1.4448E-04\n',
               '-\n',
               '- PERCENT DISCREPANCY =           0.00     PERCENT DISCREPANCY '
               '=           0.03\n',
               '-\n',
               '-\n',
               '-\n',
               '-\n',
               '-\n',
               '-\n',
               '-         TIME SUMMARY AT END OF TIME STEP   30 IN STRESS '
               'PERIOD    2\n',
               '-                    SECONDS     MINUTES      HOURS       '
               'DAYS        YEARS\n',
               '-                    '
               '-----------------------------------------------------------\n',
               '-   TIME STEP LENGTH 2.49961E+05  4166.0      69.434      '
               '2.8931     7.92080E-03\n',
               '- STRESS PERIOD TIME 2.59200E+06  43200.      720.00      '
               '30.000     8.21355E-02\n',
               '-         TOTAL TIME 5.18400E+06  86400.      1440.0      '
               '60.000     0.16427    \n',
               '-1\n',
               '-1\n',
               '-                            STRESS PERIOD NO.    3, LENGTH '
               '=   2592000.    \n',
               '-                            '
               '-----------------------------------------------\n',
               '-\n',
               '-                              NUMBER OF TIME STEPS =    30\n',
               '-\n',
               '-                               MULTIPLIER FOR DELT =     '
               '1.100\n',
               '-\n',
               '-                            INITIAL TIME STEP SIZE =   '
               '15757.40    \n',
               '-\n',
               '- REUSING NON-PARAMETER GHB CELLS FROM LAST STRESS PERIOD\n',
               '-\n',
               '-      7 GHB CELLS\n',
               '- \n',
               '- SOLVING FOR HEAD \n',
               '-\n',
               '- NO OUTPUT CONTROL FOR STRESS PERIOD    3   TIME STEP    1\n',
               '- \n',
               '- SOLVING FOR HEAD \n',
               '-\n',
               '- NO OUTPUT CONTROL FOR STRESS PERIOD    3   TIME STEP    2\n',
               '- \n',
               '- SOLVING FOR HEAD \n',
               '-\n',
               '- NO OUTPUT CONTROL FOR STRESS PERIOD    3   TIME STEP    3\n',
               '- \n',
               '- SOLVING FOR HEAD \n',
               '-\n',
               '- NO OUTPUT CONTROL FOR STRESS PERIOD    3   TIME STEP    4\n',
               '- \n',
               '- SOLVING FOR HEAD \n',
               '-\n',
               '- NO OUTPUT CONTROL FOR STRESS PERIOD    3   TIME STEP    5\n',
               '- \n',
               '- SOLVING FOR HEAD \n',
               '-\n',
               '- NO OUTPUT CONTROL FOR STRESS PERIOD    3   TIME STEP    6\n',
               '- \n',
               '- SOLVING FOR HEAD \n',
               '-\n',
               '- NO OUTPUT CONTROL FOR STRESS PERIOD    3   TIME STEP    7\n',
               '- \n',
               '- SOLVING FOR HEAD \n',
               '-\n',
               '- NO OUTPUT CONTROL FOR STRESS PERIOD    3   TIME STEP    8\n',
               '- \n',
               '- SOLVING FOR HEAD \n',
               '-\n',
               '- NO OUTPUT CONTROL FOR STRESS PERIOD    3   TIME STEP    9\n',
               '- \n',
               '- SOLVING FOR HEAD \n',
               '-\n',
               '- NO OUTPUT CONTROL FOR STRESS PERIOD    3   TIME STEP   10\n',
               '- \n',
               '- SOLVING FOR HEAD \n',
               '-\n',
               '- NO OUTPUT CONTROL FOR STRESS PERIOD    3   TIME STEP   11\n',
               '- \n',
               '- SOLVING FOR HEAD \n',
               '-\n',
               '- NO OUTPUT CONTROL FOR STRESS PERIOD    3   TIME STEP   12\n',
               '- \n',
               '- SOLVING FOR HEAD \n',
               '-\n',
               '- NO OUTPUT CONTROL FOR STRESS PERIOD    3   TIME STEP   13\n',
               '- \n',
               '- SOLVING FOR HEAD \n',
               '-\n',
               '- NO OUTPUT CONTROL FOR STRESS PERIOD    3   TIME STEP   14\n',
               '- \n',
               '- SOLVING FOR HEAD \n',
               '-\n',
               '- NO OUTPUT CONTROL FOR STRESS PERIOD    3   TIME STEP   15\n',
               '- \n',
               '- SOLVING FOR HEAD \n',
               '-\n',
               '- NO OUTPUT CONTROL FOR STRESS PERIOD    3   TIME STEP   16\n',
               '- \n',
               '- SOLVING FOR HEAD \n',
               '-\n',
               '- NO OUTPUT CONTROL FOR STRESS PERIOD    3   TIME STEP   17\n',
               '- \n',
               '- SOLVING FOR HEAD \n',
               '-\n',
               '- NO OUTPUT CONTROL FOR STRESS PERIOD    3   TIME STEP   18\n',
               '- \n',
               '- SOLVING FOR HEAD \n',
               '-\n',
               '- NO OUTPUT CONTROL FOR STRESS PERIOD    3   TIME STEP   19\n',
               '- \n',
               '- SOLVING FOR HEAD \n',
               '-\n',
               '- NO OUTPUT CONTROL FOR STRESS PERIOD    3   TIME STEP   20\n',
               '- \n',
               '- SOLVING FOR HEAD \n',
               '-\n',
               '- NO OUTPUT CONTROL FOR STRESS PERIOD    3   TIME STEP   21\n',
               '- \n',
               '- SOLVING FOR HEAD \n',
               '-\n',
               '- NO OUTPUT CONTROL FOR STRESS PERIOD    3   TIME STEP   22\n',
               '- \n',
               '- SOLVING FOR HEAD \n',
               '-\n',
               '- NO OUTPUT CONTROL FOR STRESS PERIOD    3   TIME STEP   23\n',
               '- \n',
               '- SOLVING FOR HEAD \n',
               '-\n',
               '- NO OUTPUT CONTROL FOR STRESS PERIOD    3   TIME STEP   24\n',
               '- \n',
               '- SOLVING FOR HEAD \n',
               '-\n',
               '- NO OUTPUT CONTROL FOR STRESS PERIOD    3   TIME STEP   25\n',
               '- \n',
               '- SOLVING FOR HEAD \n',
               '-\n',
               '- NO OUTPUT CONTROL FOR STRESS PERIOD    3   TIME STEP   26\n',
               '- \n',
               '- SOLVING FOR HEAD \n',
               '-\n',
               '- NO OUTPUT CONTROL FOR STRESS PERIOD    3   TIME STEP   27\n',
               '- \n',
               '- SOLVING FOR HEAD \n',
               '-\n',
               '- NO OUTPUT CONTROL FOR STRESS PERIOD    3   TIME STEP   28\n',
               '- \n',
               '- SOLVING FOR HEAD \n',
               '-\n',
               '- NO OUTPUT CONTROL FOR STRESS PERIOD    3   TIME STEP   29\n',
               '- \n',
               '- SOLVING FOR HEAD \n',
               '-\n',
               '- NO OUTPUT CONTROL FOR STRESS PERIOD    3   TIME STEP   30\n',
               '-\n',
               '-\n',
               '-\n',
               '- STREAM LISTING     PERIOD      3   STEP       30\n',
               '-\n',
               '- LAYER ROW COL. STREAM  RCH.   FLOW INTO    STREAM     FLOW '
               'OUT OF   OVRLND.    DIRECT     STREAM      STREAM      '
               'STREAM     STREAM  STREAMBED   FLOW TO   CHNG. UNSAT. \n',
               '-                SEG.NO.  NO.   STRM. RCH.    LOSS       STRM. '
               'RCH.   RUNOFF     PRECIP       ET         HEAD        '
               'DEPTH      WIDTH  CONDCTNC.   WAT. TAB.\n',
               '-\n',
               '-   1    4    1     1     1    3.8400E+00  1.4068E-03   '
               '3.8386E+00  0.000E+00  0.000E+00  0.000E+00  1.41321E+02  '
               '1.471E+00  3.573E+00  7.137E-04  1.416E-03 -8.811E-06\n',
               '-   1    4    2     1     2    3.8386E+00  1.4065E-03   '
               '3.8372E+00  0.000E+00  0.000E+00  0.000E+00  1.41021E+02  '
               '1.471E+00  3.572E+00  7.136E-04  1.415E-03 -8.798E-06\n',
               '-   1    4    3     1     3    3.8372E+00  1.4061E-03   '
               '3.8358E+00  0.000E+00  0.000E+00  0.000E+00  1.40721E+02  '
               '1.471E+00  3.572E+00  7.135E-04  1.415E-03 -8.774E-06\n',
               '-   1    4    4     1     4    3.8358E+00  1.4057E-03   '
               '3.8344E+00  0.000E+00  0.000E+00  0.000E+00  1.40420E+02  '
               '1.470E+00  3.572E+00  7.134E-04  1.414E-03 -8.739E-06\n',
               '-   1    4    5     1     5    3.8344E+00  1.4053E-03   '
               '3.8330E+00  0.000E+00  0.000E+00  0.000E+00  1.40120E+02  '
               '1.470E+00  3.571E+00  7.133E-04  1.414E-03 -8.698E-06\n',
               '-   1    4    6     1     6    3.8330E+00  1.4049E-03   '
               '3.8316E+00  0.000E+00  0.000E+00  0.000E+00  1.39820E+02  '
               '1.470E+00  3.571E+00  7.133E-04  1.414E-03 -8.656E-06\n',
               '-   1    4    7     1     7    3.8316E+00  1.4046E-03   '
               '3.8302E+00  0.000E+00  0.000E+00  0.000E+00  1.39520E+02  '
               '1.469E+00  3.571E+00  7.132E-04  1.413E-03 -8.612E-06\n',
               '-   1    4    8     1     8    3.8302E+00  1.4042E-03   '
               '3.8288E+00  0.000E+00  0.000E+00  0.000E+00  1.39219E+02  '
               '1.469E+00  3.570E+00  7.131E-04  1.413E-03 -8.573E-06\n',
               '-   1    4    9     1     9    3.8288E+00  1.4038E-03   '
               '3.8274E+00  0.000E+00  0.000E+00  0.000E+00  1.38919E+02  '
               '1.469E+00  3.570E+00  7.130E-04  1.412E-03 -8.539E-06\n',
               '-   1    4   10     1    10    3.8274E+00  1.4034E-03   '
               '3.8260E+00  0.000E+00  0.000E+00  0.000E+00  1.38619E+02  '
               '1.469E+00  3.570E+00  7.129E-04  1.412E-03 -8.511E-06\n',
               '-   1    4   11     1    11    3.8260E+00  1.4031E-03   '
               '3.8245E+00  0.000E+00  0.000E+00  0.000E+00  1.38318E+02  '
               '1.468E+00  3.569E+00  7.128E-04  1.412E-03 -8.484E-06\n',
               '-   1    4   12     1    12    3.8245E+00  1.4027E-03   '
               '3.8231E+00  0.000E+00  0.000E+00  0.000E+00  1.38018E+02  '
               '1.468E+00  3.569E+00  7.127E-04  1.411E-03 -8.465E-06\n',
               '-   1    4   13     1    13    3.8231E+00  1.4023E-03   '
               '3.8217E+00  0.000E+00  0.000E+00  0.000E+00  1.37718E+02  '
               '1.468E+00  3.569E+00  7.126E-04  1.411E-03 -8.449E-06\n',
               '-   1    4   14     1    14    3.8217E+00  1.4019E-03   '
               '3.8203E+00  0.000E+00  0.000E+00  0.000E+00  1.37418E+02  '
               '1.468E+00  3.568E+00  7.125E-04  1.410E-03 -8.436E-06\n',
               '-   1    4   15     1    15    3.8203E+00  1.4015E-03   '
               '3.8189E+00  0.000E+00  0.000E+00  0.000E+00  1.37117E+02  '
               '1.467E+00  3.568E+00  7.124E-04  1.410E-03 -8.424E-06\n',
               '-   1    4   16     1    16    3.8189E+00  1.4012E-03   '
               '3.8175E+00  0.000E+00  0.000E+00  0.000E+00  1.36817E+02  '
               '1.467E+00  3.568E+00  7.123E-04  1.410E-03 -8.417E-06\n',
               '-   1    4   17     1    17    3.8175E+00  1.4008E-03   '
               '3.8161E+00  0.000E+00  0.000E+00  0.000E+00  1.36517E+02  '
               '1.467E+00  3.567E+00  7.122E-04  1.409E-03 -8.408E-06\n',
               '-   1    4   18     1    18    3.8161E+00  1.4004E-03   '
               '3.8147E+00  0.000E+00  0.000E+00  0.000E+00  1.36216E+02  '
               '1.466E+00  3.567E+00  7.122E-04  1.409E-03 -8.404E-06\n',
               '-   1    4   19     1    19    3.8147E+00  1.4000E-03   '
               '3.8133E+00  0.000E+00  0.000E+00  0.000E+00  1.35916E+02  '
               '1.466E+00  3.567E+00  7.121E-04  1.408E-03 -8.396E-06\n',
               '-   1    4   20     1    20    3.8133E+00  1.3996E-03   '
               '3.8119E+00  0.000E+00  0.000E+00  0.000E+00  1.35616E+02  '
               '1.466E+00  3.566E+00  7.120E-04  1.408E-03 -8.392E-06\n',
               '-   1    4   21     1    21    3.8119E+00  1.3993E-03   '
               '3.8105E+00  0.000E+00  0.000E+00  0.000E+00  1.35316E+02  '
               '1.466E+00  3.566E+00  7.119E-04  1.408E-03 -8.387E-06\n',
               '-   1    4   22     1    22    3.8105E+00  1.3989E-03   '
               '3.8091E+00  0.000E+00  0.000E+00  0.000E+00  1.35015E+02  '
               '1.465E+00  3.566E+00  7.118E-04  1.407E-03 -8.383E-06\n',
               '-   1    4   23     1    23    3.8091E+00  1.3985E-03   '
               '3.8077E+00  0.000E+00  0.000E+00  0.000E+00  1.34715E+02  '
               '1.465E+00  3.565E+00  7.117E-04  1.407E-03 -8.379E-06\n',
               '-   1    4   24     1    24    3.8077E+00  1.3981E-03   '
               '3.8063E+00  0.000E+00  0.000E+00  0.000E+00  1.34415E+02  '
               '1.465E+00  3.565E+00  7.116E-04  1.407E-03 -8.375E-06\n',
               '-   1    4   25     1    25    3.8063E+00  1.3978E-03   '
               '3.8049E+00  0.000E+00  0.000E+00  0.000E+00  1.34114E+02  '
               '1.464E+00  3.565E+00  7.115E-04  1.406E-03 -8.372E-06\n',
               '-   1    4   26     1    26    3.8049E+00  1.3974E-03   '
               '3.8035E+00  0.000E+00  0.000E+00  0.000E+00  1.33814E+02  '
               '1.464E+00  3.564E+00  7.114E-04  1.406E-03 -8.370E-06\n',
               '-   1    4   27     1    27    3.8035E+00  1.3970E-03   '
               '3.8022E+00  0.000E+00  0.000E+00  0.000E+00  1.33514E+02  '
               '1.464E+00  3.564E+00  7.113E-04  1.405E-03 -8.367E-06\n',
               '-   1    4   28     1    28    3.8022E+00  1.3966E-03   '
               '3.8008E+00  0.000E+00  0.000E+00  0.000E+00  1.33214E+02  '
               '1.464E+00  3.564E+00  7.112E-04  1.405E-03 -8.364E-06\n',
               '-   1    4   29     1    29    3.8008E+00  1.3962E-03   '
               '3.7994E+00  0.000E+00  0.000E+00  0.000E+00  1.32913E+02  '
               '1.463E+00  3.563E+00  7.112E-04  1.405E-03 -8.360E-06\n',
               '-   1    4   30     1    30    3.7994E+00  1.3959E-03   '
               '3.7980E+00  0.000E+00  0.000E+00  0.000E+00  1.32613E+02  '
               '1.463E+00  3.563E+00  7.111E-04  1.404E-03 -8.356E-06\n',
               '-   1    4   31     1    31    3.7980E+00  1.3955E-03   '
               '3.7966E+00  0.000E+00  0.000E+00  0.000E+00  1.32313E+02  '
               '1.463E+00  3.563E+00  7.110E-04  1.404E-03 -8.353E-06\n',
               '-   1    4   32     1    32    3.7966E+00  1.3951E-03   '
               '3.7952E+00  0.000E+00  0.000E+00  0.000E+00  1.32013E+02  '
               '1.463E+00  3.562E+00  7.109E-04  1.403E-03 -8.348E-06\n',
               '-   1    4   33     1    33    3.7952E+00  1.3947E-03   '
               '3.7938E+00  0.000E+00  0.000E+00  0.000E+00  1.31712E+02  '
               '1.462E+00  3.562E+00  7.108E-04  1.403E-03 -8.345E-06\n',
               '-   1    4   34     1    34    3.7938E+00  1.3944E-03   '
               '3.7924E+00  0.000E+00  0.000E+00  0.000E+00  1.31412E+02  '
               '1.462E+00  3.562E+00  7.107E-04  1.403E-03 -8.341E-06\n',
               '-   1    4   35     1    35    3.7924E+00  1.3940E-03   '
               '3.7910E+00  0.000E+00  0.000E+00  0.000E+00  1.31112E+02  '
               '1.462E+00  3.561E+00  7.106E-04  1.402E-03 -8.336E-06\n',
               '-   1    4   36     1    36    3.7910E+00  1.3936E-03   '
               '3.7896E+00  0.000E+00  0.000E+00  0.000E+00  1.30811E+02  '
               '1.461E+00  3.561E+00  7.105E-04  1.402E-03 -8.329E-06\n',
               '-   1    4   37     1    37    3.7896E+00  1.3932E-03   '
               '3.7882E+00  0.000E+00  0.000E+00  0.000E+00  1.30511E+02  '
               '1.461E+00  3.561E+00  7.104E-04  1.402E-03 -8.320E-06\n',
               '-   1    4   38     1    38    3.7882E+00  1.3929E-03   '
               '3.7868E+00  0.000E+00  0.000E+00  0.000E+00  1.30211E+02  '
               '1.461E+00  3.560E+00  7.103E-04  1.401E-03 -8.309E-06\n',
               '-   1    4   39     1    39    3.7868E+00  1.3925E-03   '
               '3.7854E+00  0.000E+00  0.000E+00  0.000E+00  1.29911E+02  '
               '1.461E+00  3.560E+00  7.102E-04  1.401E-03 -8.296E-06\n',
               '-   1    4   40     1    40    3.7854E+00  1.3921E-03   '
               '3.7840E+00  0.000E+00  0.000E+00  0.000E+00  1.29610E+02  '
               '1.460E+00  3.560E+00  7.102E-04  1.400E-03 -8.280E-06\n',
               '-   1    4   41     1    41    3.7840E+00  1.3917E-03   '
               '3.7826E+00  0.000E+00  0.000E+00  0.000E+00  1.29310E+02  '
               '1.460E+00  3.559E+00  7.101E-04  1.400E-03 -8.260E-06\n',
               '-   1    4   42     1    42    3.7826E+00  1.3913E-03   '
               '3.7812E+00  0.000E+00  0.000E+00  0.000E+00  1.29010E+02  '
               '1.460E+00  3.559E+00  7.100E-04  1.400E-03 -8.235E-06\n',
               '-   1    4   43     1    43    3.7812E+00  1.3910E-03   '
               '3.7798E+00  0.000E+00  0.000E+00  0.000E+00  1.28709E+02  '
               '1.459E+00  3.559E+00  7.099E-04  1.399E-03 -8.203E-06\n',
               '-   1    4   44     1    44    3.7798E+00  1.3906E-03   '
               '3.7785E+00  0.000E+00  0.000E+00  0.000E+00  1.28409E+02  '
               '1.459E+00  3.558E+00  7.098E-04  1.399E-03 -8.165E-06\n',
               '-   1    4   45     1    45    3.7785E+00  1.3902E-03   '
               '3.7771E+00  0.000E+00  0.000E+00  0.000E+00  1.28109E+02  '
               '1.459E+00  3.558E+00  7.097E-04  1.398E-03 -8.117E-06\n',
               '-   1    4   46     1    46    3.7771E+00  1.3898E-03   '
               '3.7757E+00  0.000E+00  0.000E+00  0.000E+00  1.27809E+02  '
               '1.459E+00  3.558E+00  7.096E-04  1.398E-03 -8.060E-06\n',
               '-   1    4   47     1    47    3.7757E+00  1.3895E-03   '
               '3.7743E+00  0.000E+00  0.000E+00  0.000E+00  1.27508E+02  '
               '1.458E+00  3.557E+00  7.095E-04  1.397E-03 -7.986E-06\n',
               '-   1    4   48     1    48    3.7743E+00  1.3891E-03   '
               '3.7729E+00  0.000E+00  0.000E+00  0.000E+00  1.27208E+02  '
               '1.458E+00  3.557E+00  7.094E-04  1.397E-03 -7.894E-06\n',
               '-   1    4   49     1    49    3.7729E+00  1.3887E-03   '
               '3.7715E+00  0.000E+00  0.000E+00  0.000E+00  1.26908E+02  '
               '1.458E+00  3.557E+00  7.093E-04  1.396E-03 -7.780E-06\n',
               '-   1    4   50     1    50    3.7715E+00  1.3883E-03   '
               '3.7701E+00  0.000E+00  0.000E+00  0.000E+00  1.26607E+02  '
               '1.457E+00  3.556E+00  7.092E-04  1.396E-03 -7.638E-06\n',
               '-   1    4   51     1    51    3.7701E+00  1.3880E-03   '
               '3.7687E+00  0.000E+00  0.000E+00  0.000E+00  1.26307E+02  '
               '1.457E+00  3.556E+00  7.092E-04  1.395E-03 -7.466E-06\n',
               '-   1    4   52     1    52    3.7687E+00  1.3876E-03   '
               '3.7673E+00  0.000E+00  0.000E+00  0.000E+00  1.26007E+02  '
               '1.457E+00  3.556E+00  7.091E-04  1.395E-03 -7.255E-06\n',
               '-   1    4   53     1    53    3.7673E+00  1.3872E-03   '
               '3.7660E+00  0.000E+00  0.000E+00  0.000E+00  1.25707E+02  '
               '1.457E+00  3.555E+00  7.090E-04  1.394E-03 -6.996E-06\n',
               '-   1    4   54     1    54    3.7660E+00  1.3868E-03   '
               '3.7646E+00  0.000E+00  0.000E+00  0.000E+00  1.25406E+02  '
               '1.456E+00  3.555E+00  7.089E-04  1.394E-03 -6.682E-06\n',
               '-   1    4   55     1    55    3.7646E+00  1.3865E-03   '
               '3.7632E+00  0.000E+00  0.000E+00  0.000E+00  1.25106E+02  '
               '1.456E+00  3.555E+00  7.088E-04  1.393E-03 -6.302E-06\n',
               '-   1    4   56     1    56    3.7632E+00  1.3861E-03   '
               '3.7618E+00  0.000E+00  0.000E+00  0.000E+00  1.24806E+02  '
               '1.456E+00  3.554E+00  7.087E-04  1.392E-03 -5.844E-06\n',
               '-   1    4   57     1    57    3.7618E+00  1.3857E-03   '
               '3.7604E+00  0.000E+00  0.000E+00  0.000E+00  1.24506E+02  '
               '1.456E+00  3.554E+00  7.086E-04  1.391E-03 -5.295E-06\n',
               '-   1    4   58     1    58    3.7604E+00  1.3853E-03   '
               '3.7590E+00  0.000E+00  0.000E+00  0.000E+00  1.24205E+02  '
               '1.455E+00  3.554E+00  7.085E-04  1.390E-03 -4.639E-06\n',
               '-   1    4   59     1    59    3.7590E+00  1.3850E-03   '
               '3.7576E+00  0.000E+00  0.000E+00  0.000E+00  1.23905E+02  '
               '1.455E+00  3.553E+00  7.084E-04  1.389E-03 -3.862E-06\n',
               '-   1    4   60     1    60    3.7576E+00  1.3846E-03   '
               '3.7563E+00  0.000E+00  0.000E+00  0.000E+00  1.23605E+02  '
               '1.455E+00  3.553E+00  7.083E-04  1.388E-03 -2.945E-06\n',
               '-   1    4   61     1    61    3.7563E+00  1.3842E-03   '
               '3.7549E+00  0.000E+00  0.000E+00  0.000E+00  1.23304E+02  '
               '1.454E+00  3.553E+00  7.082E-04  1.386E-03 -1.867E-06\n',
               '-   1    4   62     1    62    3.7549E+00  1.3838E-03   '
               '3.7535E+00  0.000E+00  0.000E+00  0.000E+00  1.23004E+02  '
               '1.454E+00  3.552E+00  7.082E-04  1.384E-03 -6.090E-07\n',
               '-   1    4   63     1    63    3.7535E+00  1.3835E-03   '
               '3.7521E+00  0.000E+00  0.000E+00  0.000E+00  1.22704E+02  '
               '1.454E+00  3.552E+00  7.081E-04  1.383E-03  8.511E-07\n',
               '-   1    4   64     1    64    3.7521E+00  1.3831E-03   '
               '3.7507E+00  0.000E+00  0.000E+00  0.000E+00  1.22404E+02  '
               '1.454E+00  3.552E+00  7.080E-04  1.381E-03  2.536E-06\n',
               '-   1    4   65     1    65    3.7507E+00  1.3827E-03   '
               '3.7493E+00  0.000E+00  0.000E+00  0.000E+00  1.22103E+02  '
               '1.453E+00  3.551E+00  7.079E-04  1.378E-03  4.469E-06\n',
               '-   1    4   66     1    66    3.7493E+00  1.3823E-03   '
               '3.7480E+00  0.000E+00  0.000E+00  0.000E+00  1.21803E+02  '
               '1.453E+00  3.551E+00  7.078E-04  1.376E-03  6.674E-06\n',
               '-   1    4   67     1    67    3.7480E+00  1.3820E-03   '
               '3.7466E+00  0.000E+00  0.000E+00  0.000E+00  1.21503E+02  '
               '1.453E+00  3.551E+00  7.077E-04  1.373E-03  9.170E-06\n',
               '-   1    4   68     1    68    3.7466E+00  1.3816E-03   '
               '3.7452E+00  0.000E+00  0.000E+00  0.000E+00  1.21202E+02  '
               '1.452E+00  3.550E+00  7.076E-04  1.370E-03  1.198E-05\n',
               '-   1    4   69     1    69    3.7452E+00  1.3812E-03   '
               '3.7438E+00  0.000E+00  0.000E+00  0.000E+00  1.20902E+02  '
               '1.452E+00  3.550E+00  7.075E-04  1.366E-03  1.512E-05\n',
               '-   1    4   70     1    70    3.7438E+00  1.3808E-03   '
               '3.7424E+00  0.000E+00  0.000E+00  0.000E+00  1.20602E+02  '
               '1.452E+00  3.550E+00  7.074E-04  1.362E-03  1.860E-05\n',
               '-   1    4   71     1    71    3.7424E+00  1.3805E-03   '
               '3.7411E+00  0.000E+00  0.000E+00  0.000E+00  1.20302E+02  '
               '1.452E+00  3.549E+00  7.073E-04  1.358E-03  2.244E-05\n',
               '-   1    4   72     1    72    3.7411E+00  1.3801E-03   '
               '3.7397E+00  0.000E+00  0.000E+00  0.000E+00  1.20001E+02  '
               '1.451E+00  3.549E+00  7.072E-04  1.353E-03  2.663E-05\n',
               '-   1    4   73     1    73    3.7397E+00  1.3797E-03   '
               '3.7383E+00  0.000E+00  0.000E+00  0.000E+00  1.19701E+02  '
               '1.451E+00  3.549E+00  7.072E-04  1.349E-03  3.117E-05\n',
               '-   1    4   74     1    74    3.7383E+00  1.3793E-03   '
               '3.7369E+00  0.000E+00  0.000E+00  0.000E+00  1.19401E+02  '
               '1.451E+00  3.548E+00  7.071E-04  1.343E-03  3.605E-05\n',
               '-   1    4   75     1    75    3.7369E+00  1.3790E-03   '
               '3.7355E+00  0.000E+00  0.000E+00  0.000E+00  1.19101E+02  '
               '1.451E+00  3.548E+00  7.070E-04  1.338E-03  4.124E-05\n',
               '-   1    4   76     1    76    3.7355E+00  1.3786E-03   '
               '3.7342E+00  0.000E+00  0.000E+00  0.000E+00  1.18800E+02  '
               '1.450E+00  3.548E+00  7.069E-04  1.332E-03  4.671E-05\n',
               '-   1    4   77     1    77    3.7342E+00  1.3782E-03   '
               '3.7328E+00  0.000E+00  0.000E+00  0.000E+00  1.18500E+02  '
               '1.450E+00  3.547E+00  7.068E-04  1.326E-03  5.241E-05\n',
               '-   1    4   78     1    78    3.7328E+00  1.3779E-03   '
               '3.7314E+00  0.000E+00  0.000E+00  0.000E+00  1.18200E+02  '
               '1.450E+00  3.547E+00  7.067E-04  1.320E-03  5.828E-05\n',
               '-   1    4   79     1    79    3.7314E+00  1.3775E-03   '
               '3.7300E+00  0.000E+00  0.000E+00  0.000E+00  1.17899E+02  '
               '1.449E+00  3.547E+00  7.066E-04  1.313E-03  6.426E-05\n',
               '-   1    4   80     1    80    3.7300E+00  1.3771E-03   '
               '3.7286E+00  0.000E+00  0.000E+00  0.000E+00  1.17599E+02  '
               '1.449E+00  3.546E+00  7.065E-04  1.307E-03  7.025E-05\n',
               '-   1    4   81     1    81    3.7286E+00  1.3767E-03   '
               '3.7273E+00  0.000E+00  0.000E+00  0.000E+00  1.17299E+02  '
               '1.449E+00  3.546E+00  7.064E-04  1.301E-03  7.615E-05\n',
               '-   1    4   82     1    82    3.7273E+00  1.3764E-03   '
               '3.7259E+00  0.000E+00  0.000E+00  0.000E+00  1.16999E+02  '
               '1.449E+00  3.546E+00  7.063E-04  1.295E-03  8.186E-05\n',
               '-   1    4   83     1    83    3.7259E+00  1.3760E-03   '
               '3.7245E+00  0.000E+00  0.000E+00  0.000E+00  1.16698E+02  '
               '1.448E+00  3.545E+00  7.062E-04  1.289E-03  8.724E-05\n',
               '-   1    4   84     1    84    3.7245E+00  1.3756E-03   '
               '3.7231E+00  0.000E+00  0.000E+00  0.000E+00  1.16398E+02  '
               '1.448E+00  3.545E+00  7.062E-04  1.283E-03  9.216E-05\n',
               '-   1    4   85     1    85    3.7231E+00  1.3752E-03   '
               '3.7218E+00  0.000E+00  0.000E+00  0.000E+00  1.16098E+02  '
               '1.448E+00  3.545E+00  7.061E-04  1.279E-03  9.647E-05\n',
               '-   1    4   86     1    86    3.7218E+00  1.3749E-03   '
               '3.7204E+00  0.000E+00  0.000E+00  0.000E+00  1.15797E+02  '
               '1.447E+00  3.544E+00  7.060E-04  1.275E-03  1.000E-04\n',
               '-   1    4   87     1    87    3.7204E+00  1.3745E-03   '
               '3.7190E+00  0.000E+00  0.000E+00  0.000E+00  1.15497E+02  '
               '1.447E+00  3.544E+00  7.059E-04  1.272E-03  1.027E-04\n',
               '-   1    4   88     1    88    3.7190E+00  1.3741E-03   '
               '3.7176E+00  0.000E+00  0.000E+00  0.000E+00  1.15197E+02  '
               '1.447E+00  3.544E+00  7.058E-04  1.270E-03  1.042E-04\n',
               '-   1    4   89     1    89    3.7176E+00  1.3738E-03   '
               '3.7163E+00  0.000E+00  0.000E+00  0.000E+00  1.14897E+02  '
               '1.447E+00  3.543E+00  7.057E-04  1.269E-03  1.046E-04\n',
               '-   1    4   90     1    90    3.7163E+00  1.3734E-03   '
               '3.7149E+00  0.000E+00  0.000E+00  0.000E+00  1.14596E+02  '
               '1.446E+00  3.543E+00  7.056E-04  1.270E-03  1.035E-04\n',
               '-   1    4   91     1    91    3.7149E+00  1.3730E-03   '
               '3.7135E+00  0.000E+00  0.000E+00  0.000E+00  1.14296E+02  '
               '1.446E+00  3.543E+00  7.055E-04  1.272E-03  1.010E-04\n',
               '-   1    4   92     1    92    3.7135E+00  1.3726E-03   '
               '3.7122E+00  0.000E+00  0.000E+00  0.000E+00  1.13996E+02  '
               '1.446E+00  3.542E+00  7.054E-04  1.276E-03  9.683E-05\n',
               '-   1    4   93     1    93    3.7122E+00  1.3723E-03   '
               '3.7108E+00  0.000E+00  0.000E+00  0.000E+00  1.13696E+02  '
               '1.446E+00  3.542E+00  7.053E-04  1.281E-03  9.093E-05\n',
               '-   1    4   94     1    94    3.7108E+00  1.3719E-03   '
               '3.7094E+00  0.000E+00  0.000E+00  0.000E+00  1.13395E+02  '
               '1.445E+00  3.542E+00  7.052E-04  1.289E-03  8.324E-05\n',
               '-   1    4   95     1    95    3.7094E+00  1.3715E-03   '
               '3.7080E+00  0.000E+00  0.000E+00  0.000E+00  1.13095E+02  '
               '1.445E+00  3.541E+00  7.052E-04  1.298E-03  7.371E-05\n',
               '-   1    4   96     1    96    3.7080E+00  1.3711E-03   '
               '3.7067E+00  0.000E+00  0.000E+00  0.000E+00  1.12795E+02  '
               '1.445E+00  3.541E+00  7.051E-04  1.309E-03  6.236E-05\n',
               '-   1    4   97     1    97    3.7067E+00  1.3708E-03   '
               '3.7053E+00  0.000E+00  0.000E+00  0.000E+00  1.12494E+02  '
               '1.444E+00  3.541E+00  7.050E-04  1.322E-03  4.920E-05\n',
               '-   1    4   98     1    98    3.7053E+00  1.3704E-03   '
               '3.7039E+00  0.000E+00  0.000E+00  0.000E+00  1.12194E+02  '
               '1.444E+00  3.540E+00  7.049E-04  1.336E-03  3.435E-05\n',
               '-   1    4   99     1    99    3.7039E+00  1.3700E-03   '
               '3.7026E+00  0.000E+00  0.000E+00  0.000E+00  1.11894E+02  '
               '1.444E+00  3.540E+00  7.048E-04  1.352E-03  1.792E-05\n',
               '-   1    4  100     1   100    3.7026E+00  1.3697E-03   '
               '3.7012E+00  0.000E+00  0.000E+00  0.000E+00  1.11594E+02  '
               '1.444E+00  3.540E+00  7.047E-04  0.000E+00  0.000E+00\n',
               '-\n',
               '-\n',
               '-\n',
               '-1\n',
               '-  VOLUMETRIC BUDGET FOR UNSATURATED ZONE BENEATH STREAMS AT '
               'END OF TIME STEP    30 STRESS PERIOD   3\n',
               '-  '
               '------------------------------------------------------------------------------------------------\n',
               '-\n',
               '-    CUMULATIVE VOLUMES             L**3    RATES FOR THIS '
               'TIME STEP         L**3/T\n',
               '-    ------------------                     '
               '------------------------\n',
               '-\n',
               '-\n',
               '-          STREAM LOSS =       715426.6250            STREAM '
               'LOSS =            0.1388\n',
               '-    CHANGE IN STORAGE =       332069.7500      CHANGE IN '
               'STORAGE =        1.5992E-03\n',
               '-       RECHARGE TO GW =       383355.6250         RECHARGE TO '
               'GW =            0.1372\n',
               '-\n',
               '-             TOTAL IN =       715426.6250               TOTAL '
               'IN =            0.1388\n',
               '-\n',
               '-            TOTAL OUT =       715425.3750              TOTAL '
               'OUT =            0.1388\n',
               '-\n',
               '-             IN - OUT =            1.2500               IN - '
               'OUT =       -5.9605E-08\n',
               '-\n',
               '-  PERCENT DISCREPANCY =            0.00      PERCENT '
               'DISCREPANCY =            -0.00\n',
               '-\n',
               '-\n',
               '-\n',
               '-1\n',
               '-  VOLUMETRIC BUDGET FOR ENTIRE MODEL AT END OF TIME STEP   '
               '30, STRESS PERIOD   3\n',
               '-  '
               '------------------------------------------------------------------------------\n',
               '-\n',
               '-     CUMULATIVE VOLUMES      L**3       RATES FOR THIS TIME '
               'STEP      L**3/T\n',
               '-     ------------------                 '
               '------------------------\n',
               '-\n',
               '-           IN:                                      IN:\n',
               '-           ---                                      ---\n',
               '-             STORAGE =     5978452.0000               STORAGE '
               '=           0.3504\n',
               '-       CONSTANT HEAD =           0.0000         CONSTANT HEAD '
               '=           0.0000\n',
               '-     HEAD DEP BOUNDS =           0.0000       HEAD DEP BOUNDS '
               '=           0.0000\n',
               '-      STREAM LEAKAGE =      383355.7188        STREAM LEAKAGE '
               '=           0.1372\n',
               '-\n',
               '-            TOTAL IN =     6361807.5000              TOTAL IN '
               '=           0.4876\n',
               '-\n',
               '-          OUT:                                     OUT:\n',
               '-          ----                                     ----\n',
               '-             STORAGE =      206764.3906               STORAGE '
               '=       8.0271E-02\n',
               '-       CONSTANT HEAD =           0.0000         CONSTANT HEAD '
               '=           0.0000\n',
               '-     HEAD DEP BOUNDS =     6155045.0000       HEAD DEP BOUNDS '
               '=           0.4072\n',
               '-      STREAM LEAKAGE =           0.0000        STREAM LEAKAGE '
               '=           0.0000\n',
               '-\n',
               '-           TOTAL OUT =     6361809.5000             TOTAL OUT '
               '=           0.4875\n',
               '-\n',
               '-            IN - OUT =          -2.0000              IN - OUT '
               '=       7.4446E-05\n',
               '-\n',
               '- PERCENT DISCREPANCY =          -0.00     PERCENT DISCREPANCY '
               '=           0.02\n',
               '-\n',
               '-\n',
               '-\n',
               '-\n',
               '-\n',
               '-\n',
               '-         TIME SUMMARY AT END OF TIME STEP   30 IN STRESS '
               'PERIOD    3\n',
               '-                    SECONDS     MINUTES      HOURS       '
               'DAYS        YEARS\n',
               '-                    '
               '-----------------------------------------------------------\n',
               '-   TIME STEP LENGTH 2.49961E+05  4166.0      69.434      '
               '2.8931     7.92080E-03\n',
               '- STRESS PERIOD TIME 2.59200E+06  43200.      720.00      '
               '30.000     8.21355E-02\n',
               '-         TOTAL TIME 7.77600E+06 1.29600E+05  2160.0      '
               '90.000     0.24641    \n',
               '-1\n',
               '-1\n',
               '-                            STRESS PERIOD NO.    4, LENGTH '
               '=   2592000.    \n',
               '-                            '
               '-----------------------------------------------\n',
               '-\n',
               '-                              NUMBER OF TIME STEPS =    30\n',
               '-\n',
               '-                               MULTIPLIER FOR DELT =     '
               '1.100\n',
               '-\n',
               '-                            INITIAL TIME STEP SIZE =   '
               '15757.40    \n',
               '-\n',
               '- REUSING NON-PARAMETER GHB CELLS FROM LAST STRESS PERIOD\n',
               '-\n',
               '-      7 GHB CELLS\n',
               '- \n',
               '- SOLVING FOR HEAD \n',
               '-\n',
               '- NO OUTPUT CONTROL FOR STRESS PERIOD    4   TIME STEP    1\n',
               '- \n',
               '- SOLVING FOR HEAD \n',
               '-\n',
               '- NO OUTPUT CONTROL FOR STRESS PERIOD    4   TIME STEP    2\n',
               '- \n',
               '- SOLVING FOR HEAD \n',
               '-\n',
               '- NO OUTPUT CONTROL FOR STRESS PERIOD    4   TIME STEP    3\n',
               '- \n',
               '- SOLVING FOR HEAD \n',
               '-\n',
               '- NO OUTPUT CONTROL FOR STRESS PERIOD    4   TIME STEP    4\n',
               '- \n',
               '- SOLVING FOR HEAD \n',
               '-\n',
               '- NO OUTPUT CONTROL FOR STRESS PERIOD    4   TIME STEP    5\n',
               '- \n',
               '- SOLVING FOR HEAD \n',
               '-\n',
               '- NO OUTPUT CONTROL FOR STRESS PERIOD    4   TIME STEP    6\n',
               '- \n',
               '- SOLVING FOR HEAD \n',
               '-\n',
               '- NO OUTPUT CONTROL FOR STRESS PERIOD    4   TIME STEP    7\n',
               '- \n',
               '- SOLVING FOR HEAD \n',
               '-\n',
               '- NO OUTPUT CONTROL FOR STRESS PERIOD    4   TIME STEP    8\n',
               '- \n',
               '- SOLVING FOR HEAD \n',
               '-\n',
               '- NO OUTPUT CONTROL FOR STRESS PERIOD    4   TIME STEP    9\n',
               '- \n',
               '- SOLVING FOR HEAD \n',
               '-\n',
               '- NO OUTPUT CONTROL FOR STRESS PERIOD    4   TIME STEP   10\n',
               '- \n',
               '- SOLVING FOR HEAD \n',
               '-\n',
               '- NO OUTPUT CONTROL FOR STRESS PERIOD    4   TIME STEP   11\n',
               '- \n',
               '- SOLVING FOR HEAD \n',
               '-\n',
               '- NO OUTPUT CONTROL FOR STRESS PERIOD    4   TIME STEP   12\n',
               '- \n',
               '- SOLVING FOR HEAD \n',
               '-\n',
               '- NO OUTPUT CONTROL FOR STRESS PERIOD    4   TIME STEP   13\n',
               '- \n',
               '- SOLVING FOR HEAD \n',
               '-\n',
               '- NO OUTPUT CONTROL FOR STRESS PERIOD    4   TIME STEP   14\n',
               '- \n',
               '- SOLVING FOR HEAD \n',
               '-\n',
               '- NO OUTPUT CONTROL FOR STRESS PERIOD    4   TIME STEP   15\n',
               '- \n',
               '- SOLVING FOR HEAD \n',
               '-\n',
               '- NO OUTPUT CONTROL FOR STRESS PERIOD    4   TIME STEP   16\n',
               '- \n',
               '- SOLVING FOR HEAD \n',
               '-\n',
               '- NO OUTPUT CONTROL FOR STRESS PERIOD    4   TIME STEP   17\n',
               '- \n',
               '- SOLVING FOR HEAD \n',
               '-\n',
               '- NO OUTPUT CONTROL FOR STRESS PERIOD    4   TIME STEP   18\n',
               '- \n',
               '- SOLVING FOR HEAD \n',
               '-\n',
               '- NO OUTPUT CONTROL FOR STRESS PERIOD    4   TIME STEP   19\n',
               '- \n',
               '- SOLVING FOR HEAD \n',
               '-\n',
               '- NO OUTPUT CONTROL FOR STRESS PERIOD    4   TIME STEP   20\n',
               '- \n',
               '- SOLVING FOR HEAD \n',
               '-\n',
               '- NO OUTPUT CONTROL FOR STRESS PERIOD    4   TIME STEP   21\n',
               '- \n',
               '- SOLVING FOR HEAD \n',
               '-\n',
               '- NO OUTPUT CONTROL FOR STRESS PERIOD    4   TIME STEP   22\n',
               '- \n',
               '- SOLVING FOR HEAD \n',
               '-\n',
               '- NO OUTPUT CONTROL FOR STRESS PERIOD    4   TIME STEP   23\n',
               '- \n',
               '- SOLVING FOR HEAD \n',
               '-\n',
               '- NO OUTPUT CONTROL FOR STRESS PERIOD    4   TIME STEP   24\n',
               '- \n',
               '- SOLVING FOR HEAD \n',
               '-\n',
               '- NO OUTPUT CONTROL FOR STRESS PERIOD    4   TIME STEP   25\n',
               '- \n',
               '- SOLVING FOR HEAD \n',
               '-\n',
               '- NO OUTPUT CONTROL FOR STRESS PERIOD    4   TIME STEP   26\n',
               '- \n',
               '- SOLVING FOR HEAD \n',
               '-\n',
               '- NO OUTPUT CONTROL FOR STRESS PERIOD    4   TIME STEP   27\n',
               '- \n',
               '- SOLVING FOR HEAD \n',
               '-\n',
               '- NO OUTPUT CONTROL FOR STRESS PERIOD    4   TIME STEP   28\n',
               '- \n',
               '- SOLVING FOR HEAD \n',
               '-\n',
               '- NO OUTPUT CONTROL FOR STRESS PERIOD    4   TIME STEP   29\n',
               '- \n',
               '- SOLVING FOR HEAD \n',
               '-\n',
               '- NO OUTPUT CONTROL FOR STRESS PERIOD    4   TIME STEP   30\n',
               '-\n',
               '-\n',
               '-\n',
               '- STREAM LISTING     PERIOD      4   STEP       30\n',
               '-\n',
               '- LAYER ROW COL. STREAM  RCH.   FLOW INTO    STREAM     FLOW '
               'OUT OF   OVRLND.    DIRECT     STREAM      STREAM      '
               'STREAM     STREAM  STREAMBED   FLOW TO   CHNG. UNSAT. \n',
               '-                SEG.NO.  NO.   STRM. RCH.    LOSS       STRM. '
               'RCH.   RUNOFF     PRECIP       ET         HEAD        '
               'DEPTH      WIDTH  CONDCTNC.   WAT. TAB.\n',
               '-\n',
               '-   1    4    1     1     1    1.7850E+01  4.7594E-03   '
               '1.7845E+01  0.000E+00  0.000E+00  0.000E+00  1.43063E+02  '
               '3.213E+00  5.656E+00  1.282E-03  4.223E-03  5.478E-04\n',
               '-   1    4    2     1     2    1.7845E+01  4.7583E-03   '
               '1.7840E+01  0.000E+00  0.000E+00  0.000E+00  1.42762E+02  '
               '3.212E+00  5.656E+00  1.282E-03  4.222E-03  5.473E-04\n',
               '-   1    4    3     1     3    1.7840E+01  4.7573E-03   '
               '1.7836E+01  0.000E+00  0.000E+00  0.000E+00  1.42462E+02  '
               '3.212E+00  5.655E+00  1.282E-03  4.222E-03  5.468E-04\n',
               '-   1    4    4     1     4    1.7836E+01  4.7562E-03   '
               '1.7831E+01  0.000E+00  0.000E+00  0.000E+00  1.42161E+02  '
               '3.211E+00  5.655E+00  1.282E-03  4.221E-03  5.463E-04\n',
               '-   1    4    5     1     5    1.7831E+01  4.7552E-03   '
               '1.7826E+01  0.000E+00  0.000E+00  0.000E+00  1.41861E+02  '
               '3.211E+00  5.654E+00  1.281E-03  4.221E-03  5.458E-04\n',
               '-   1    4    6     1     6    1.7826E+01  4.7541E-03   '
               '1.7821E+01  0.000E+00  0.000E+00  0.000E+00  1.41560E+02  '
               '3.210E+00  5.654E+00  1.281E-03  4.220E-03  5.454E-04\n',
               '-   1    4    7     1     7    1.7821E+01  4.7531E-03   '
               '1.7817E+01  0.000E+00  0.000E+00  0.000E+00  1.41260E+02  '
               '3.210E+00  5.653E+00  1.281E-03  4.219E-03  5.449E-04\n',
               '-   1    4    8     1     8    1.7817E+01  4.7520E-03   '
               '1.7812E+01  0.000E+00  0.000E+00  0.000E+00  1.40960E+02  '
               '3.210E+00  5.653E+00  1.281E-03  4.219E-03  5.444E-04\n',
               '-   1    4    9     1     9    1.7812E+01  4.7510E-03   '
               '1.7807E+01  0.000E+00  0.000E+00  0.000E+00  1.40659E+02  '
               '3.209E+00  5.652E+00  1.281E-03  4.218E-03  5.439E-04\n',
               '-   1    4   10     1    10    1.7807E+01  4.7499E-03   '
               '1.7802E+01  0.000E+00  0.000E+00  0.000E+00  1.40359E+02  '
               '3.209E+00  5.652E+00  1.281E-03  4.218E-03  5.433E-04\n',
               '-   1    4   11     1    11    1.7802E+01  4.7489E-03   '
               '1.7798E+01  0.000E+00  0.000E+00  0.000E+00  1.40058E+02  '
               '3.208E+00  5.651E+00  1.281E-03  4.217E-03  5.428E-04\n',
               '-   1    4   12     1    12    1.7798E+01  4.7478E-03   '
               '1.7793E+01  0.000E+00  0.000E+00  0.000E+00  1.39758E+02  '
               '3.208E+00  5.651E+00  1.280E-03  4.217E-03  5.422E-04\n',
               '-   1    4   13     1    13    1.7793E+01  4.7468E-03   '
               '1.7788E+01  0.000E+00  0.000E+00  0.000E+00  1.39457E+02  '
               '3.207E+00  5.650E+00  1.280E-03  4.216E-03  5.417E-04\n',
               '-   1    4   14     1    14    1.7788E+01  4.7457E-03   '
               '1.7783E+01  0.000E+00  0.000E+00  0.000E+00  1.39157E+02  '
               '3.207E+00  5.649E+00  1.280E-03  4.216E-03  5.411E-04\n',
               '-   1    4   15     1    15    1.7783E+01  4.7447E-03   '
               '1.7779E+01  0.000E+00  0.000E+00  0.000E+00  1.38857E+02  '
               '3.207E+00  5.649E+00  1.280E-03  4.215E-03  5.405E-04\n',
               '-   1    4   16     1    16    1.7779E+01  4.7437E-03   '
               '1.7774E+01  0.000E+00  0.000E+00  0.000E+00  1.38556E+02  '
               '3.206E+00  5.648E+00  1.280E-03  4.215E-03  5.400E-04\n',
               '-   1    4   17     1    17    1.7774E+01  4.7426E-03   '
               '1.7769E+01  0.000E+00  0.000E+00  0.000E+00  1.38256E+02  '
               '3.206E+00  5.648E+00  1.280E-03  4.214E-03  5.394E-04\n',
               '-   1    4   18     1    18    1.7769E+01  4.7416E-03   '
               '1.7764E+01  0.000E+00  0.000E+00  0.000E+00  1.37955E+02  '
               '3.205E+00  5.647E+00  1.280E-03  4.214E-03  5.388E-04\n',
               '-   1    4   19     1    19    1.7764E+01  4.7405E-03   '
               '1.7760E+01  0.000E+00  0.000E+00  0.000E+00  1.37655E+02  '
               '3.205E+00  5.647E+00  1.280E-03  4.214E-03  5.383E-04\n',
               '-   1    4   20     1    20    1.7760E+01  4.7395E-03   '
               '1.7755E+01  0.000E+00  0.000E+00  0.000E+00  1.37355E+02  '
               '3.205E+00  5.646E+00  1.279E-03  4.213E-03  5.377E-04\n',
               '-   1    4   21     1    21    1.7755E+01  4.7384E-03   '
               '1.7750E+01  0.000E+00  0.000E+00  0.000E+00  1.37054E+02  '
               '3.204E+00  5.646E+00  1.279E-03  4.213E-03  5.371E-04\n',
               '-   1    4   22     1    22    1.7750E+01  4.7374E-03   '
               '1.7746E+01  0.000E+00  0.000E+00  0.000E+00  1.36754E+02  '
               '3.204E+00  5.645E+00  1.279E-03  4.212E-03  5.365E-04\n',
               '-   1    4   23     1    23    1.7746E+01  4.7363E-03   '
               '1.7741E+01  0.000E+00  0.000E+00  0.000E+00  1.36453E+02  '
               '3.203E+00  5.645E+00  1.279E-03  4.212E-03  5.360E-04\n',
               '-   1    4   24     1    24    1.7741E+01  4.7353E-03   '
               '1.7736E+01  0.000E+00  0.000E+00  0.000E+00  1.36153E+02  '
               '3.203E+00  5.644E+00  1.279E-03  4.211E-03  5.354E-04\n',
               '-   1    4   25     1    25    1.7736E+01  4.7343E-03   '
               '1.7731E+01  0.000E+00  0.000E+00  0.000E+00  1.35852E+02  '
               '3.202E+00  5.644E+00  1.279E-03  4.211E-03  5.348E-04\n',
               '-   1    4   26     1    26    1.7731E+01  4.7332E-03   '
               '1.7727E+01  0.000E+00  0.000E+00  0.000E+00  1.35552E+02  '
               '3.202E+00  5.643E+00  1.279E-03  4.210E-03  5.342E-04\n',
               '-   1    4   27     1    27    1.7727E+01  4.7322E-03   '
               '1.7722E+01  0.000E+00  0.000E+00  0.000E+00  1.35252E+02  '
               '3.202E+00  5.643E+00  1.278E-03  4.210E-03  5.336E-04\n',
               '-   1    4   28     1    28    1.7722E+01  4.7311E-03   '
               '1.7717E+01  0.000E+00  0.000E+00  0.000E+00  1.34951E+02  '
               '3.201E+00  5.642E+00  1.278E-03  4.209E-03  5.331E-04\n',
               '-   1    4   29     1    29    1.7717E+01  4.7301E-03   '
               '1.7712E+01  0.000E+00  0.000E+00  0.000E+00  1.34651E+02  '
               '3.201E+00  5.642E+00  1.278E-03  4.209E-03  5.325E-04\n',
               '-   1    4   30     1    30    1.7712E+01  4.7290E-03   '
               '1.7708E+01  0.000E+00  0.000E+00  0.000E+00  1.34350E+02  '
               '3.200E+00  5.641E+00  1.278E-03  4.208E-03  5.319E-04\n',
               '-   1    4   31     1    31    1.7708E+01  4.7280E-03   '
               '1.7703E+01  0.000E+00  0.000E+00  0.000E+00  1.34050E+02  '
               '3.200E+00  5.641E+00  1.278E-03  4.208E-03  5.313E-04\n',
               '-   1    4   32     1    32    1.7703E+01  4.7270E-03   '
               '1.7698E+01  0.000E+00  0.000E+00  0.000E+00  1.33749E+02  '
               '3.199E+00  5.640E+00  1.278E-03  4.207E-03  5.308E-04\n',
               '-   1    4   33     1    33    1.7698E+01  4.7259E-03   '
               '1.7693E+01  0.000E+00  0.000E+00  0.000E+00  1.33449E+02  '
               '3.199E+00  5.640E+00  1.278E-03  4.207E-03  5.302E-04\n',
               '-   1    4   34     1    34    1.7693E+01  4.7249E-03   '
               '1.7689E+01  0.000E+00  0.000E+00  0.000E+00  1.33149E+02  '
               '3.199E+00  5.639E+00  1.277E-03  4.207E-03  5.296E-04\n',
               '-   1    4   35     1    35    1.7689E+01  4.7238E-03   '
               '1.7684E+01  0.000E+00  0.000E+00  0.000E+00  1.32848E+02  '
               '3.198E+00  5.639E+00  1.277E-03  4.206E-03  5.291E-04\n',
               '-   1    4   36     1    36    1.7684E+01  4.7228E-03   '
               '1.7679E+01  0.000E+00  0.000E+00  0.000E+00  1.32548E+02  '
               '3.198E+00  5.638E+00  1.277E-03  4.206E-03  5.285E-04\n',
               '-   1    4   37     1    37    1.7679E+01  4.7217E-03   '
               '1.7675E+01  0.000E+00  0.000E+00  0.000E+00  1.32247E+02  '
               '3.197E+00  5.638E+00  1.277E-03  4.205E-03  5.280E-04\n',
               '-   1    4   38     1    38    1.7675E+01  4.7207E-03   '
               '1.7670E+01  0.000E+00  0.000E+00  0.000E+00  1.31947E+02  '
               '3.197E+00  5.637E+00  1.277E-03  4.205E-03  5.275E-04\n',
               '-   1    4   39     1    39    1.7670E+01  4.7197E-03   '
               '1.7665E+01  0.000E+00  0.000E+00  0.000E+00  1.31647E+02  '
               '3.197E+00  5.637E+00  1.277E-03  4.204E-03  5.269E-04\n',
               '-   1    4   40     1    40    1.7665E+01  4.7186E-03   '
               '1.7660E+01  0.000E+00  0.000E+00  0.000E+00  1.31346E+02  '
               '3.196E+00  5.636E+00  1.277E-03  4.203E-03  5.264E-04\n',
               '-   1    4   41     1    41    1.7660E+01  4.7176E-03   '
               '1.7656E+01  0.000E+00  0.000E+00  0.000E+00  1.31046E+02  '
               '3.196E+00  5.636E+00  1.276E-03  4.203E-03  5.260E-04\n',
               '-   1    4   42     1    42    1.7656E+01  4.7165E-03   '
               '1.7651E+01  0.000E+00  0.000E+00  0.000E+00  1.30745E+02  '
               '3.195E+00  5.635E+00  1.276E-03  4.202E-03  5.255E-04\n',
               '-   1    4   43     1    43    1.7651E+01  4.7155E-03   '
               '1.7646E+01  0.000E+00  0.000E+00  0.000E+00  1.30445E+02  '
               '3.195E+00  5.635E+00  1.276E-03  4.202E-03  5.251E-04\n',
               '-   1    4   44     1    44    1.7646E+01  4.7145E-03   '
               '1.7642E+01  0.000E+00  0.000E+00  0.000E+00  1.30144E+02  '
               '3.194E+00  5.634E+00  1.276E-03  4.201E-03  5.247E-04\n',
               '-   1    4   45     1    45    1.7642E+01  4.7134E-03   '
               '1.7637E+01  0.000E+00  0.000E+00  0.000E+00  1.29844E+02  '
               '3.194E+00  5.634E+00  1.276E-03  4.200E-03  5.243E-04\n',
               '-   1    4   46     1    46    1.7637E+01  4.7124E-03   '
               '1.7632E+01  0.000E+00  0.000E+00  0.000E+00  1.29544E+02  '
               '3.194E+00  5.633E+00  1.276E-03  4.200E-03  5.240E-04\n',
               '-   1    4   47     1    47    1.7632E+01  4.7113E-03   '
               '1.7627E+01  0.000E+00  0.000E+00  0.000E+00  1.29243E+02  '
               '3.193E+00  5.633E+00  1.276E-03  4.199E-03  5.238E-04\n',
               '-   1    4   48     1    48    1.7627E+01  4.7103E-03   '
               '1.7623E+01  0.000E+00  0.000E+00  0.000E+00  1.28943E+02  '
               '3.193E+00  5.632E+00  1.276E-03  4.198E-03  5.236E-04\n',
               '-   1    4   49     1    49    1.7623E+01  4.7093E-03   '
               '1.7618E+01  0.000E+00  0.000E+00  0.000E+00  1.28642E+02  '
               '3.192E+00  5.632E+00  1.275E-03  4.197E-03  5.235E-04\n',
               '-   1    4   50     1    50    1.7618E+01  4.7082E-03   '
               '1.7613E+01  0.000E+00  0.000E+00  0.000E+00  1.28342E+02  '
               '3.192E+00  5.631E+00  1.275E-03  4.196E-03  5.235E-04\n',
               '-   1    4   51     1    51    1.7613E+01  4.7072E-03   '
               '1.7609E+01  0.000E+00  0.000E+00  0.000E+00  1.28042E+02  '
               '3.192E+00  5.631E+00  1.275E-03  4.195E-03  5.236E-04\n',
               '-   1    4   52     1    52    1.7609E+01  4.7061E-03   '
               '1.7604E+01  0.000E+00  0.000E+00  0.000E+00  1.27741E+02  '
               '3.191E+00  5.630E+00  1.275E-03  4.194E-03  5.237E-04\n',
               '-   1    4   53     1    53    1.7604E+01  4.7051E-03   '
               '1.7599E+01  0.000E+00  0.000E+00  0.000E+00  1.27441E+02  '
               '3.191E+00  5.630E+00  1.275E-03  4.192E-03  5.241E-04\n',
               '-   1    4   54     1    54    1.7599E+01  4.7041E-03   '
               '1.7594E+01  0.000E+00  0.000E+00  0.000E+00  1.27140E+02  '
               '3.190E+00  5.629E+00  1.275E-03  4.191E-03  5.245E-04\n',
               '-   1    4   55     1    55    1.7594E+01  4.7030E-03   '
               '1.7590E+01  0.000E+00  0.000E+00  0.000E+00  1.26840E+02  '
               '3.190E+00  5.629E+00  1.275E-03  4.189E-03  5.251E-04\n',
               '-   1    4   56     1    56    1.7590E+01  4.7020E-03   '
               '1.7585E+01  0.000E+00  0.000E+00  0.000E+00  1.26539E+02  '
               '3.189E+00  5.628E+00  1.274E-03  4.187E-03  5.260E-04\n',
               '-   1    4   57     1    57    1.7585E+01  4.7010E-03   '
               '1.7580E+01  0.000E+00  0.000E+00  0.000E+00  1.26239E+02  '
               '3.189E+00  5.628E+00  1.274E-03  4.185E-03  5.270E-04\n',
               '-   1    4   58     1    58    1.7580E+01  4.6999E-03   '
               '1.7576E+01  0.000E+00  0.000E+00  0.000E+00  1.25939E+02  '
               '3.189E+00  5.627E+00  1.274E-03  4.183E-03  5.282E-04\n',
               '-   1    4   59     1    59    1.7576E+01  4.6989E-03   '
               '1.7571E+01  0.000E+00  0.000E+00  0.000E+00  1.25638E+02  '
               '3.188E+00  5.627E+00  1.274E-03  4.181E-03  5.297E-04\n',
               '-   1    4   60     1    60    1.7571E+01  4.6978E-03   '
               '1.7566E+01  0.000E+00  0.000E+00  0.000E+00  1.25338E+02  '
               '3.188E+00  5.626E+00  1.274E-03  4.178E-03  5.314E-04\n',
               '-   1    4   61     1    61    1.7566E+01  4.6968E-03   '
               '1.7562E+01  0.000E+00  0.000E+00  0.000E+00  1.25037E+02  '
               '3.187E+00  5.626E+00  1.274E-03  4.175E-03  5.334E-04\n',
               '-   1    4   62     1    62    1.7562E+01  4.6958E-03   '
               '1.7557E+01  0.000E+00  0.000E+00  0.000E+00  1.24737E+02  '
               '3.187E+00  5.625E+00  1.274E-03  4.171E-03  5.357E-04\n',
               '-   1    4   63     1    63    1.7557E+01  4.6947E-03   '
               '1.7552E+01  0.000E+00  0.000E+00  0.000E+00  1.24436E+02  '
               '3.186E+00  5.625E+00  1.273E-03  4.168E-03  5.383E-04\n',
               '-   1    4   64     1    64    1.7552E+01  4.6937E-03   '
               '1.7547E+01  0.000E+00  0.000E+00  0.000E+00  1.24136E+02  '
               '3.186E+00  5.624E+00  1.273E-03  4.164E-03  5.413E-04\n',
               '-   1    4   65     1    65    1.7547E+01  4.6927E-03   '
               '1.7543E+01  0.000E+00  0.000E+00  0.000E+00  1.23836E+02  '
               '3.186E+00  5.624E+00  1.273E-03  4.159E-03  5.446E-04\n',
               '-   1    4   66     1    66    1.7543E+01  4.6916E-03   '
               '1.7538E+01  0.000E+00  0.000E+00  0.000E+00  1.23535E+02  '
               '3.185E+00  5.623E+00  1.273E-03  4.155E-03  5.482E-04\n',
               '-   1    4   67     1    67    1.7538E+01  4.6906E-03   '
               '1.7533E+01  0.000E+00  0.000E+00  0.000E+00  1.23235E+02  '
               '3.185E+00  5.623E+00  1.273E-03  4.150E-03  5.521E-04\n',
               '-   1    4   68     1    68    1.7533E+01  4.6895E-03   '
               '1.7529E+01  0.000E+00  0.000E+00  0.000E+00  1.22934E+02  '
               '3.184E+00  5.622E+00  1.273E-03  4.179E-03  5.219E-04\n',
               '-   1    4   69     1    69    1.7529E+01  4.6885E-03   '
               '1.7524E+01  0.000E+00  0.000E+00  0.000E+00  1.22634E+02  '
               '3.184E+00  5.622E+00  1.273E-03  4.228E-03  4.720E-04\n',
               '-   1    4   70     1    70    1.7524E+01  4.6875E-03   '
               '1.7519E+01  0.000E+00  0.000E+00  0.000E+00  1.22334E+02  '
               '3.184E+00  5.621E+00  1.273E-03  4.269E-03  4.301E-04\n',
               '-   1    4   71     1    71    1.7519E+01  4.6864E-03   '
               '1.7515E+01  0.000E+00  0.000E+00  0.000E+00  1.22033E+02  '
               '3.183E+00  5.621E+00  1.272E-03  4.301E-03  3.971E-04\n',
               '-   1    4   72     1    72    1.7515E+01  4.6854E-03   '
               '1.7510E+01  0.000E+00  0.000E+00  0.000E+00  1.21733E+02  '
               '3.183E+00  5.620E+00  1.272E-03  4.323E-03  3.738E-04\n',
               '-   1    4   73     1    73    1.7510E+01  4.6844E-03   '
               '1.7505E+01  0.000E+00  0.000E+00  0.000E+00  1.21432E+02  '
               '3.182E+00  5.620E+00  1.272E-03  4.334E-03  3.613E-04\n',
               '-   1    4   74     1    74    1.7505E+01  4.6833E-03   '
               '1.7501E+01  0.000E+00  0.000E+00  0.000E+00  1.21132E+02  '
               '3.182E+00  5.619E+00  1.272E-03  4.334E-03  3.606E-04\n',
               '-   1    4   75     1    75    1.7501E+01  4.6823E-03   '
               '1.7496E+01  0.000E+00  0.000E+00  0.000E+00  1.20831E+02  '
               '3.181E+00  5.619E+00  1.272E-03  4.321E-03  3.725E-04\n',
               '-   1    4   76     1    76    1.7496E+01  4.6813E-03   '
               '1.7491E+01  0.000E+00  0.000E+00  0.000E+00  1.20531E+02  '
               '3.181E+00  5.618E+00  1.272E-03  4.294E-03  3.982E-04\n',
               '-   1    4   77     1    77    1.7491E+01  4.6802E-03   '
               '1.7487E+01  0.000E+00  0.000E+00  0.000E+00  1.20231E+02  '
               '3.181E+00  5.618E+00  1.272E-03  4.253E-03  4.388E-04\n',
               '-   1    4   78     1    78    1.7487E+01  4.6792E-03   '
               '1.7482E+01  0.000E+00  0.000E+00  0.000E+00  1.19930E+02  '
               '3.180E+00  5.617E+00  1.271E-03  4.195E-03  4.952E-04\n',
               '-   1    4   79     1    79    1.7482E+01  4.6782E-03   '
               '1.7477E+01  0.000E+00  0.000E+00  0.000E+00  1.19630E+02  '
               '3.180E+00  5.617E+00  1.271E-03  4.121E-03  5.685E-04\n',
               '-   1    4   80     1    80    1.7477E+01  4.6771E-03   '
               '1.7473E+01  0.000E+00  0.000E+00  0.000E+00  1.19329E+02  '
               '3.179E+00  5.616E+00  1.271E-03  4.062E-03  6.263E-04\n',
               '-   1    4   81     1    81    1.7473E+01  4.6761E-03   '
               '1.7468E+01  0.000E+00  0.000E+00  0.000E+00  1.19029E+02  '
               '3.179E+00  5.616E+00  1.271E-03  4.056E-03  6.319E-04\n',
               '-   1    4   82     1    82    1.7468E+01  4.6751E-03   '
               '1.7463E+01  0.000E+00  0.000E+00  0.000E+00  1.18729E+02  '
               '3.179E+00  5.615E+00  1.271E-03  4.050E-03  6.368E-04\n',
               '-   1    4   83     1    83    1.7463E+01  4.6740E-03   '
               '1.7458E+01  0.000E+00  0.000E+00  0.000E+00  1.18428E+02  '
               '3.178E+00  5.615E+00  1.271E-03  4.044E-03  6.410E-04\n',
               '-   1    4   84     1    84    1.7458E+01  4.6730E-03   '
               '1.7454E+01  0.000E+00  0.000E+00  0.000E+00  1.18128E+02  '
               '3.178E+00  5.614E+00  1.271E-03  4.040E-03  6.445E-04\n',
               '-   1    4   85     1    85    1.7454E+01  4.6720E-03   '
               '1.7449E+01  0.000E+00  0.000E+00  0.000E+00  1.17827E+02  '
               '3.177E+00  5.614E+00  1.270E-03  4.036E-03  6.470E-04\n',
               '-   1    4   86     1    86    1.7449E+01  4.6709E-03   '
               '1.7444E+01  0.000E+00  0.000E+00  0.000E+00  1.17527E+02  '
               '3.177E+00  5.613E+00  1.270E-03  4.034E-03  6.485E-04\n',
               '-   1    4   87     1    87    1.7444E+01  4.6699E-03   '
               '1.7440E+01  0.000E+00  0.000E+00  0.000E+00  1.17226E+02  '
               '3.176E+00  5.613E+00  1.270E-03  4.033E-03  6.488E-04\n',
               '-   1    4   88     1    88    1.7440E+01  4.6689E-03   '
               '1.7435E+01  0.000E+00  0.000E+00  0.000E+00  1.16926E+02  '
               '3.176E+00  5.612E+00  1.270E-03  4.032E-03  6.479E-04\n',
               '-   1    4   89     1    89    1.7435E+01  4.6678E-03   '
               '1.7430E+01  0.000E+00  0.000E+00  0.000E+00  1.16626E+02  '
               '3.176E+00  5.612E+00  1.270E-03  4.034E-03  6.457E-04\n',
               '-   1    4   90     1    90    1.7430E+01  4.6668E-03   '
               '1.7426E+01  0.000E+00  0.000E+00  0.000E+00  1.16325E+02  '
               '3.175E+00  5.611E+00  1.270E-03  4.036E-03  6.420E-04\n',
               '-   1    4   91     1    91    1.7426E+01  4.6658E-03   '
               '1.7421E+01  0.000E+00  0.000E+00  0.000E+00  1.16025E+02  '
               '3.175E+00  5.611E+00  1.270E-03  4.040E-03  6.369E-04\n',
               '-   1    4   92     1    92    1.7421E+01  4.6647E-03   '
               '1.7416E+01  0.000E+00  0.000E+00  0.000E+00  1.15724E+02  '
               '3.174E+00  5.610E+00  1.270E-03  4.046E-03  6.302E-04\n',
               '-   1    4   93     1    93    1.7416E+01  4.6637E-03   '
               '1.7412E+01  0.000E+00  0.000E+00  0.000E+00  1.15424E+02  '
               '3.174E+00  5.610E+00  1.269E-03  4.053E-03  6.221E-04\n',
               '-   1    4   94     1    94    1.7412E+01  4.6627E-03   '
               '1.7407E+01  0.000E+00  0.000E+00  0.000E+00  1.15124E+02  '
               '3.174E+00  5.609E+00  1.269E-03  4.062E-03  6.125E-04\n',
               '-   1    4   95     1    95    1.7407E+01  4.6616E-03   '
               '1.7402E+01  0.000E+00  0.000E+00  0.000E+00  1.14823E+02  '
               '3.173E+00  5.609E+00  1.269E-03  4.072E-03  6.015E-04\n',
               '-   1    4   96     1    96    1.7402E+01  4.6606E-03   '
               '1.7398E+01  0.000E+00  0.000E+00  0.000E+00  1.14523E+02  '
               '3.173E+00  5.608E+00  1.269E-03  4.083E-03  5.894E-04\n',
               '-   1    4   97     1    97    1.7398E+01  4.6596E-03   '
               '1.7393E+01  0.000E+00  0.000E+00  0.000E+00  1.14222E+02  '
               '3.172E+00  5.608E+00  1.269E-03  4.095E-03  5.762E-04\n',
               '-   1    4   98     1    98    1.7393E+01  4.6586E-03   '
               '1.7389E+01  0.000E+00  0.000E+00  0.000E+00  1.13922E+02  '
               '3.172E+00  5.607E+00  1.269E-03  4.108E-03  5.624E-04\n',
               '-   1    4   99     1    99    1.7389E+01  4.6575E-03   '
               '1.7384E+01  0.000E+00  0.000E+00  0.000E+00  1.13621E+02  '
               '3.171E+00  5.607E+00  1.269E-03  4.121E-03  5.482E-04\n',
               '-   1    4  100     1   100    1.7384E+01  4.6565E-03   '
               '1.7379E+01  0.000E+00  0.000E+00  0.000E+00  1.13321E+02  '
               '3.171E+00  5.606E+00  1.268E-03  4.134E-03  5.338E-04\n',
               '-\n',
               '-\n',
               '-\n',
               '-1\n',
               '-  VOLUMETRIC BUDGET FOR UNSATURATED ZONE BENEATH STREAMS AT '
               'END OF TIME STEP    30 STRESS PERIOD   4\n',
               '-  '
               '------------------------------------------------------------------------------------------------\n',
               '-\n',
               '-    CUMULATIVE VOLUMES             L**3    RATES FOR THIS '
               'TIME STEP         L**3/T\n',
               '-    ------------------                     '
               '------------------------\n',
               '-\n',
               '-\n',
               '-          STREAM LOSS =      1935684.0000            STREAM '
               'LOSS =            0.4708\n',
               '-    CHANGE IN STORAGE =       716467.0625      CHANGE IN '
               'STORAGE =        5.3956E-02\n',
               '-       RECHARGE TO GW =      1222135.7500         RECHARGE TO '
               'GW =            0.4180\n',
               '-\n',
               '-             TOTAL IN =      1935684.0000               TOTAL '
               'IN =            0.4708\n',
               '-\n',
               '-            TOTAL OUT =      1938602.7500              TOTAL '
               'OUT =            0.4719\n',
               '-\n',
               '-             IN - OUT =        -2918.7500               IN - '
               'OUT =       -1.1344E-03\n',
               '-\n',
               '-  PERCENT DISCREPANCY =           -0.04      PERCENT '
               'DISCREPANCY =            -0.06\n',
               '-\n',
               '-\n',
               '-\n',
               '-1\n',
               '-  VOLUMETRIC BUDGET FOR ENTIRE MODEL AT END OF TIME STEP   '
               '30, STRESS PERIOD   4\n',
               '-  '
               '------------------------------------------------------------------------------\n',
               '-\n',
               '-     CUMULATIVE VOLUMES      L**3       RATES FOR THIS TIME '
               'STEP      L**3/T\n',
               '-     ------------------                 '
               '------------------------\n',
               '-\n',
               '-           IN:                                      IN:\n',
               '-           ---                                      ---\n',
               '-             STORAGE =     6633054.5000               STORAGE '
               '=           0.2049\n',
               '-       CONSTANT HEAD =           0.0000         CONSTANT HEAD '
               '=           0.0000\n',
               '-     HEAD DEP BOUNDS =           0.0000       HEAD DEP BOUNDS '
               '=           0.0000\n',
               '-      STREAM LEAKAGE =     1222136.6250        STREAM LEAKAGE '
               '=           0.4180\n',
               '-\n',
               '-            TOTAL IN =     7855191.0000              TOTAL IN '
               '=           0.6228\n',
               '-\n',
               '-          OUT:                                     OUT:\n',
               '-          ----                                     ----\n',
               '-             STORAGE =      700426.6875               STORAGE '
               '=           0.2510\n',
               '-       CONSTANT HEAD =           0.0000         CONSTANT HEAD '
               '=           0.0000\n',
               '-     HEAD DEP BOUNDS =     7154732.0000       HEAD DEP BOUNDS '
               '=           0.3716\n',
               '-      STREAM LEAKAGE =           0.0000        STREAM LEAKAGE '
               '=           0.0000\n',
               '-\n',
               '-           TOTAL OUT =     7855158.5000             TOTAL OUT '
               '=           0.6227\n',
               '-\n',
               '-            IN - OUT =          32.5000              IN - OUT '
               '=       1.4126E-04\n',
               '-\n',
               '- PERCENT DISCREPANCY =           0.00     PERCENT DISCREPANCY '
               '=           0.02\n',
               '-\n',
               '-\n',
               '-\n',
               '-\n',
               '-\n',
               '-\n',
               '-         TIME SUMMARY AT END OF TIME STEP   30 IN STRESS '
               'PERIOD    4\n',
               '-                    SECONDS     MINUTES      HOURS       '
               'DAYS        YEARS\n',
               '-                    '
               '-----------------------------------------------------------\n',
               '-   TIME STEP LENGTH 2.49961E+05  4166.0      69.434      '
               '2.8931     7.92080E-03\n',
               '- STRESS PERIOD TIME 2.59200E+06  43200.      720.00      '
               '30.000     8.21355E-02\n',
               '-         TOTAL TIME 1.03680E+07 1.72800E+05  2880.0      '
               '120.00     0.32854    \n',
               '-1\n',
               '-1\n',
               '-                            STRESS PERIOD NO.    5, LENGTH '
               '=   2592000.    \n',
               '-                            '
               '-----------------------------------------------\n',
               '-\n',
               '-                              NUMBER OF TIME STEPS =    30\n',
               '-\n',
               '-                               MULTIPLIER FOR DELT =     '
               '1.100\n',
               '-\n',
               '-                            INITIAL TIME STEP SIZE =   '
               '15757.40    \n',
               '-\n',
               '- REUSING NON-PARAMETER GHB CELLS FROM LAST STRESS PERIOD\n',
               '-\n',
               '-      7 GHB CELLS\n',
               '- \n',
               '- SOLVING FOR HEAD \n',
               '-\n',
               '- NO OUTPUT CONTROL FOR STRESS PERIOD    5   TIME STEP    1\n',
               '- \n',
               '- SOLVING FOR HEAD \n',
               '-\n',
               '- NO OUTPUT CONTROL FOR STRESS PERIOD    5   TIME STEP    2\n',
               '- \n',
               '- SOLVING FOR HEAD \n',
               '-\n',
               '- NO OUTPUT CONTROL FOR STRESS PERIOD    5   TIME STEP    3\n',
               '- \n',
               '- SOLVING FOR HEAD \n',
               '-\n',
               '- NO OUTPUT CONTROL FOR STRESS PERIOD    5   TIME STEP    4\n',
               '- \n',
               '- SOLVING FOR HEAD \n',
               '-\n',
               '- NO OUTPUT CONTROL FOR STRESS PERIOD    5   TIME STEP    5\n',
               '- \n',
               '- SOLVING FOR HEAD \n',
               '-\n',
               '- NO OUTPUT CONTROL FOR STRESS PERIOD    5   TIME STEP    6\n',
               '- \n',
               '- SOLVING FOR HEAD \n',
               '-\n',
               '- NO OUTPUT CONTROL FOR STRESS PERIOD    5   TIME STEP    7\n',
               '- \n',
               '- SOLVING FOR HEAD \n',
               '-\n',
               '- NO OUTPUT CONTROL FOR STRESS PERIOD    5   TIME STEP    8\n',
               '- \n',
               '- SOLVING FOR HEAD \n',
               '-\n',
               '- NO OUTPUT CONTROL FOR STRESS PERIOD    5   TIME STEP    9\n',
               '- \n',
               '- SOLVING FOR HEAD \n',
               '-\n',
               '- NO OUTPUT CONTROL FOR STRESS PERIOD    5   TIME STEP   10\n',
               '- \n',
               '- SOLVING FOR HEAD \n',
               '-\n',
               '- NO OUTPUT CONTROL FOR STRESS PERIOD    5   TIME STEP   11\n',
               '- \n',
               '- SOLVING FOR HEAD \n',
               '-\n',
               '- NO OUTPUT CONTROL FOR STRESS PERIOD    5   TIME STEP   12\n',
               '- \n',
               '- SOLVING FOR HEAD \n',
               '-\n',
               '- NO OUTPUT CONTROL FOR STRESS PERIOD    5   TIME STEP   13\n',
               '- \n',
               '- SOLVING FOR HEAD \n',
               '-\n',
               '- NO OUTPUT CONTROL FOR STRESS PERIOD    5   TIME STEP   14\n',
               '- \n',
               '- SOLVING FOR HEAD \n',
               '-\n',
               '- NO OUTPUT CONTROL FOR STRESS PERIOD    5   TIME STEP   15\n',
               '- \n',
               '- SOLVING FOR HEAD \n',
               '-\n',
               '- NO OUTPUT CONTROL FOR STRESS PERIOD    5   TIME STEP   16\n',
               '- \n',
               '- SOLVING FOR HEAD \n',
               '-\n',
               '- NO OUTPUT CONTROL FOR STRESS PERIOD    5   TIME STEP   17\n',
               '- \n',
               '- SOLVING FOR HEAD \n',
               '-\n',
               '- NO OUTPUT CONTROL FOR STRESS PERIOD    5   TIME STEP   18\n',
               '- \n',
               '- SOLVING FOR HEAD \n',
               '-\n',
               '- NO OUTPUT CONTROL FOR STRESS PERIOD    5   TIME STEP   19\n',
               '- \n',
               '- SOLVING FOR HEAD \n',
               '-\n',
               '- NO OUTPUT CONTROL FOR STRESS PERIOD    5   TIME STEP   20\n',
               '- \n',
               '- SOLVING FOR HEAD \n',
               '-\n',
               '- NO OUTPUT CONTROL FOR STRESS PERIOD    5   TIME STEP   21\n',
               '- \n',
               '- SOLVING FOR HEAD \n',
               '-\n',
               '- NO OUTPUT CONTROL FOR STRESS PERIOD    5   TIME STEP   22\n',
               '- \n',
               '- SOLVING FOR HEAD \n',
               '-\n',
               '- NO OUTPUT CONTROL FOR STRESS PERIOD    5   TIME STEP   23\n',
               '- \n',
               '- SOLVING FOR HEAD \n',
               '-\n',
               '- NO OUTPUT CONTROL FOR STRESS PERIOD    5   TIME STEP   24\n',
               '- \n',
               '- SOLVING FOR HEAD \n',
               '-\n',
               '- NO OUTPUT CONTROL FOR STRESS PERIOD    5   TIME STEP   25\n',
               '- \n',
               '- SOLVING FOR HEAD \n',
               '-\n',
               '- NO OUTPUT CONTROL FOR STRESS PERIOD    5   TIME STEP   26\n',
               '- \n',
               '- SOLVING FOR HEAD \n',
               '-\n',
               '- NO OUTPUT CONTROL FOR STRESS PERIOD    5   TIME STEP   27\n',
               '- \n',
               '- SOLVING FOR HEAD \n',
               '-\n',
               '- NO OUTPUT CONTROL FOR STRESS PERIOD    5   TIME STEP   28\n',
               '- \n',
               '- SOLVING FOR HEAD \n',
               '-\n',
               '- NO OUTPUT CONTROL FOR STRESS PERIOD    5   TIME STEP   29\n',
               '- \n',
               '- SOLVING FOR HEAD \n',
               '-\n',
               '- OUTPUT CONTROL FOR STRESS PERIOD    5   TIME STEP   30\n',
               '-    PRINT HEAD FOR ALL LAYERS\n',
               '-    PRINT BUDGET\n',
               '-    SAVE BUDGET\n',
               '-\n',
               '-  HEAD DEP BOUNDS   PERIOD    5   STEP  30\n',
               '- BOUNDARY      1   LAYER   1   ROW     1   COL   100   RATE   '
               '-5.153640E-02\n',
               '- BOUNDARY      2   LAYER   1   ROW     2   COL   100   RATE   '
               '-5.163501E-02\n',
               '- BOUNDARY      3   LAYER   1   ROW     3   COL   100   RATE   '
               '-5.144974E-02\n',
               '- BOUNDARY      4   LAYER   1   ROW     4   COL   100   RATE   '
               '-4.009462E-02\n',
               '- BOUNDARY      5   LAYER   1   ROW     5   COL   100   RATE   '
               '-5.144974E-02\n',
               '- BOUNDARY      6   LAYER   1   ROW     6   COL   100   RATE   '
               '-5.163501E-02\n',
               '- BOUNDARY      7   LAYER   1   ROW     7   COL   100   RATE   '
               '-5.153640E-02\n',
               '-\n',
               '-\n',
               '-\n',
               '- STREAM LISTING     PERIOD      5   STEP       30\n',
               '-\n',
               '- LAYER ROW COL. STREAM  RCH.   FLOW INTO    STREAM     FLOW '
               'OUT OF   OVRLND.    DIRECT     STREAM      STREAM      '
               'STREAM     STREAM  STREAMBED   FLOW TO   CHNG. UNSAT. \n',
               '-                SEG.NO.  NO.   STRM. RCH.    LOSS       STRM. '
               'RCH.   RUNOFF     PRECIP       ET         HEAD        '
               'DEPTH      WIDTH  CONDCTNC.   WAT. TAB.\n',
               '-\n',
               '-   1    4    1     1     1    2.0260E+01  5.2847E-03   '
               '2.0255E+01  0.000E+00  0.000E+00  0.000E+00  1.43268E+02  '
               '3.418E+00  5.902E+00  1.349E-03  5.351E-03 -6.601E-05\n',
               '-   1    4    2     1     2    2.0255E+01  5.2836E-03   '
               '2.0249E+01  0.000E+00  0.000E+00  0.000E+00  1.42967E+02  '
               '3.417E+00  5.901E+00  1.349E-03  5.368E-03 -8.441E-05\n',
               '-   1    4    3     1     3    2.0249E+01  5.2824E-03   '
               '2.0244E+01  0.000E+00  0.000E+00  0.000E+00  1.42667E+02  '
               '3.417E+00  5.901E+00  1.349E-03  5.366E-03 -8.362E-05\n',
               '-   1    4    4     1     4    2.0244E+01  5.2813E-03   '
               '2.0239E+01  0.000E+00  0.000E+00  0.000E+00  1.42366E+02  '
               '3.416E+00  5.900E+00  1.349E-03  5.364E-03 -8.282E-05\n',
               '-   1    4    5     1     5    2.0239E+01  5.2801E-03   '
               '2.0234E+01  0.000E+00  0.000E+00  0.000E+00  1.42066E+02  '
               '3.416E+00  5.899E+00  1.348E-03  5.362E-03 -8.207E-05\n',
               '-   1    4    6     1     6    2.0234E+01  5.2790E-03   '
               '2.0228E+01  0.000E+00  0.000E+00  0.000E+00  1.41766E+02  '
               '3.416E+00  5.899E+00  1.348E-03  5.360E-03 -8.133E-05\n',
               '-   1    4    7     1     7    2.0228E+01  5.2779E-03   '
               '2.0223E+01  0.000E+00  0.000E+00  0.000E+00  1.41465E+02  '
               '3.415E+00  5.898E+00  1.348E-03  5.358E-03 -8.060E-05\n',
               '-   1    4    8     1     8    2.0223E+01  5.2767E-03   '
               '2.0218E+01  0.000E+00  0.000E+00  0.000E+00  1.41165E+02  '
               '3.415E+00  5.898E+00  1.348E-03  5.357E-03 -7.992E-05\n',
               '-   1    4    9     1     9    2.0218E+01  5.2756E-03   '
               '2.0212E+01  0.000E+00  0.000E+00  0.000E+00  1.40864E+02  '
               '3.414E+00  5.897E+00  1.348E-03  5.355E-03 -7.970E-05\n',
               '-   1    4   10     1    10    2.0212E+01  5.2744E-03   '
               '2.0207E+01  0.000E+00  0.000E+00  0.000E+00  1.40564E+02  '
               '3.414E+00  5.897E+00  1.348E-03  5.354E-03 -7.964E-05\n',
               '-   1    4   11     1    11    2.0207E+01  5.2733E-03   '
               '2.0202E+01  0.000E+00  0.000E+00  0.000E+00  1.40263E+02  '
               '3.413E+00  5.896E+00  1.348E-03  5.353E-03 -7.957E-05\n',
               '-   1    4   12     1    12    2.0202E+01  5.2722E-03   '
               '2.0197E+01  0.000E+00  0.000E+00  0.000E+00  1.39963E+02  '
               '3.413E+00  5.896E+00  1.347E-03  5.352E-03 -7.946E-05\n',
               '-   1    4   13     1    13    2.0197E+01  5.2710E-03   '
               '2.0191E+01  0.000E+00  0.000E+00  0.000E+00  1.39663E+02  '
               '3.413E+00  5.895E+00  1.347E-03  5.350E-03 -7.933E-05\n',
               '-   1    4   14     1    14    2.0191E+01  5.2699E-03   '
               '2.0186E+01  0.000E+00  0.000E+00  0.000E+00  1.39362E+02  '
               '3.412E+00  5.895E+00  1.347E-03  5.349E-03 -7.920E-05\n',
               '-   1    4   15     1    15    2.0186E+01  5.2687E-03   '
               '2.0181E+01  0.000E+00  0.000E+00  0.000E+00  1.39062E+02  '
               '3.412E+00  5.894E+00  1.347E-03  5.348E-03 -7.910E-05\n',
               '-   1    4   16     1    16    2.0181E+01  5.2676E-03   '
               '2.0176E+01  0.000E+00  0.000E+00  0.000E+00  1.38761E+02  '
               '3.411E+00  5.894E+00  1.347E-03  5.347E-03 -7.904E-05\n',
               '-   1    4   17     1    17    2.0176E+01  5.2665E-03   '
               '2.0170E+01  0.000E+00  0.000E+00  0.000E+00  1.38461E+02  '
               '3.411E+00  5.893E+00  1.347E-03  5.345E-03 -7.899E-05\n',
               '-   1    4   18     1    18    2.0170E+01  5.2653E-03   '
               '2.0165E+01  0.000E+00  0.000E+00  0.000E+00  1.38160E+02  '
               '3.410E+00  5.893E+00  1.347E-03  5.344E-03 -7.893E-05\n',
               '-   1    4   19     1    19    2.0165E+01  5.2642E-03   '
               '2.0160E+01  0.000E+00  0.000E+00  0.000E+00  1.37860E+02  '
               '3.410E+00  5.892E+00  1.346E-03  5.343E-03 -7.887E-05\n',
               '-   1    4   20     1    20    2.0160E+01  5.2631E-03   '
               '2.0154E+01  0.000E+00  0.000E+00  0.000E+00  1.37559E+02  '
               '3.409E+00  5.892E+00  1.346E-03  5.342E-03 -7.880E-05\n',
               '-   1    4   21     1    21    2.0154E+01  5.2619E-03   '
               '2.0149E+01  0.000E+00  0.000E+00  0.000E+00  1.37259E+02  '
               '3.409E+00  5.891E+00  1.346E-03  5.341E-03 -7.874E-05\n',
               '-   1    4   22     1    22    2.0149E+01  5.2608E-03   '
               '2.0144E+01  0.000E+00  0.000E+00  0.000E+00  1.36959E+02  '
               '3.409E+00  5.891E+00  1.346E-03  5.339E-03 -7.869E-05\n',
               '-   1    4   23     1    23    2.0144E+01  5.2596E-03   '
               '2.0139E+01  0.000E+00  0.000E+00  0.000E+00  1.36658E+02  '
               '3.408E+00  5.890E+00  1.346E-03  5.338E-03 -7.864E-05\n',
               '-   1    4   24     1    24    2.0139E+01  5.2585E-03   '
               '2.0133E+01  0.000E+00  0.000E+00  0.000E+00  1.36358E+02  '
               '3.408E+00  5.890E+00  1.346E-03  5.337E-03 -7.859E-05\n',
               '-   1    4   25     1    25    2.0133E+01  5.2574E-03   '
               '2.0128E+01  0.000E+00  0.000E+00  0.000E+00  1.36057E+02  '
               '3.407E+00  5.889E+00  1.346E-03  5.336E-03 -7.853E-05\n',
               '-   1    4   26     1    26    2.0128E+01  5.2562E-03   '
               '2.0123E+01  0.000E+00  0.000E+00  0.000E+00  1.35757E+02  '
               '3.407E+00  5.889E+00  1.345E-03  5.335E-03 -7.847E-05\n',
               '-   1    4   27     1    27    2.0123E+01  5.2551E-03   '
               '2.0118E+01  0.000E+00  0.000E+00  0.000E+00  1.35456E+02  '
               '3.406E+00  5.888E+00  1.345E-03  5.334E-03 -7.842E-05\n',
               '-   1    4   28     1    28    2.0118E+01  5.2540E-03   '
               '2.0112E+01  0.000E+00  0.000E+00  0.000E+00  1.35156E+02  '
               '3.406E+00  5.888E+00  1.345E-03  5.332E-03 -7.835E-05\n',
               '-   1    4   29     1    29    2.0112E+01  5.2528E-03   '
               '2.0107E+01  0.000E+00  0.000E+00  0.000E+00  1.34856E+02  '
               '3.406E+00  5.887E+00  1.345E-03  5.331E-03 -7.828E-05\n',
               '-   1    4   30     1    30    2.0107E+01  5.2517E-03   '
               '2.0102E+01  0.000E+00  0.000E+00  0.000E+00  1.34555E+02  '
               '3.405E+00  5.887E+00  1.345E-03  5.330E-03 -7.820E-05\n',
               '-   1    4   31     1    31    2.0102E+01  5.2506E-03   '
               '2.0097E+01  0.000E+00  0.000E+00  0.000E+00  1.34255E+02  '
               '3.405E+00  5.886E+00  1.345E-03  5.329E-03 -7.811E-05\n',
               '-   1    4   32     1    32    2.0097E+01  5.2494E-03   '
               '2.0091E+01  0.000E+00  0.000E+00  0.000E+00  1.33954E+02  '
               '3.404E+00  5.885E+00  1.345E-03  5.327E-03 -7.802E-05\n',
               '-   1    4   33     1    33    2.0091E+01  5.2483E-03   '
               '2.0086E+01  0.000E+00  0.000E+00  0.000E+00  1.33654E+02  '
               '3.404E+00  5.885E+00  1.344E-03  5.326E-03 -7.790E-05\n',
               '-   1    4   34     1    34    2.0086E+01  5.2472E-03   '
               '2.0081E+01  0.000E+00  0.000E+00  0.000E+00  1.33353E+02  '
               '3.403E+00  5.884E+00  1.344E-03  5.325E-03 -7.777E-05\n',
               '-   1    4   35     1    35    2.0081E+01  5.2460E-03   '
               '2.0076E+01  0.000E+00  0.000E+00  0.000E+00  1.33053E+02  '
               '3.403E+00  5.884E+00  1.344E-03  5.324E-03 -7.762E-05\n',
               '-   1    4   36     1    36    2.0076E+01  5.2449E-03   '
               '2.0070E+01  0.000E+00  0.000E+00  0.000E+00  1.32753E+02  '
               '3.403E+00  5.883E+00  1.344E-03  5.322E-03 -7.745E-05\n',
               '-   1    4   37     1    37    2.0070E+01  5.2437E-03   '
               '2.0065E+01  0.000E+00  0.000E+00  0.000E+00  1.32452E+02  '
               '3.402E+00  5.883E+00  1.344E-03  5.321E-03 -7.724E-05\n',
               '-   1    4   38     1    38    2.0065E+01  5.2426E-03   '
               '2.0060E+01  0.000E+00  0.000E+00  0.000E+00  1.32152E+02  '
               '3.402E+00  5.882E+00  1.344E-03  5.320E-03 -7.700E-05\n',
               '-   1    4   39     1    39    2.0060E+01  5.2415E-03   '
               '2.0055E+01  0.000E+00  0.000E+00  0.000E+00  1.31851E+02  '
               '3.401E+00  5.882E+00  1.344E-03  5.318E-03 -7.672E-05\n',
               '-   1    4   40     1    40    2.0055E+01  5.2403E-03   '
               '2.0049E+01  0.000E+00  0.000E+00  0.000E+00  1.31551E+02  '
               '3.401E+00  5.881E+00  1.343E-03  5.317E-03 -7.640E-05\n',
               '-   1    4   41     1    41    2.0049E+01  5.2392E-03   '
               '2.0044E+01  0.000E+00  0.000E+00  0.000E+00  1.31250E+02  '
               '3.400E+00  5.881E+00  1.343E-03  5.315E-03 -7.602E-05\n',
               '-   1    4   42     1    42    2.0044E+01  5.2381E-03   '
               '2.0039E+01  0.000E+00  0.000E+00  0.000E+00  1.30950E+02  '
               '3.400E+00  5.880E+00  1.343E-03  5.314E-03 -7.557E-05\n',
               '-   1    4   43     1    43    2.0039E+01  5.2369E-03   '
               '2.0034E+01  0.000E+00  0.000E+00  0.000E+00  1.30650E+02  '
               '3.400E+00  5.880E+00  1.343E-03  5.312E-03 -7.506E-05\n',
               '-   1    4   44     1    44    2.0034E+01  5.2358E-03   '
               '2.0029E+01  0.000E+00  0.000E+00  0.000E+00  1.30349E+02  '
               '3.399E+00  5.879E+00  1.343E-03  5.310E-03 -7.447E-05\n',
               '-   1    4   45     1    45    2.0029E+01  5.2347E-03   '
               '2.0023E+01  0.000E+00  0.000E+00  0.000E+00  1.30049E+02  '
               '3.399E+00  5.879E+00  1.343E-03  5.308E-03 -7.379E-05\n',
               '-   1    4   46     1    46    2.0023E+01  5.2335E-03   '
               '2.0018E+01  0.000E+00  0.000E+00  0.000E+00  1.29748E+02  '
               '3.398E+00  5.878E+00  1.343E-03  5.307E-03 -7.301E-05\n',
               '-   1    4   47     1    47    2.0018E+01  5.2324E-03   '
               '2.0013E+01  0.000E+00  0.000E+00  0.000E+00  1.29448E+02  '
               '3.398E+00  5.878E+00  1.342E-03  5.305E-03 -7.211E-05\n',
               '-   1    4   48     1    48    2.0013E+01  5.2313E-03   '
               '2.0008E+01  0.000E+00  0.000E+00  0.000E+00  1.29147E+02  '
               '3.397E+00  5.877E+00  1.342E-03  5.302E-03 -7.108E-05\n',
               '-   1    4   49     1    49    2.0008E+01  5.2302E-03   '
               '2.0002E+01  0.000E+00  0.000E+00  0.000E+00  1.28847E+02  '
               '3.397E+00  5.877E+00  1.342E-03  5.300E-03 -6.990E-05\n',
               '-   1    4   50     1    50    2.0002E+01  5.2290E-03   '
               '1.9997E+01  0.000E+00  0.000E+00  0.000E+00  1.28546E+02  '
               '3.396E+00  5.876E+00  1.342E-03  5.298E-03 -6.857E-05\n',
               '-   1    4   51     1    51    1.9997E+01  5.2279E-03   '
               '1.9992E+01  0.000E+00  0.000E+00  0.000E+00  1.28246E+02  '
               '3.396E+00  5.876E+00  1.342E-03  5.295E-03 -6.705E-05\n',
               '-   1    4   52     1    52    1.9992E+01  5.2268E-03   '
               '1.9987E+01  0.000E+00  0.000E+00  0.000E+00  1.27946E+02  '
               '3.396E+00  5.875E+00  1.342E-03  5.292E-03 -6.535E-05\n',
               '-   1    4   53     1    53    1.9987E+01  5.2256E-03   '
               '1.9981E+01  0.000E+00  0.000E+00  0.000E+00  1.27645E+02  '
               '3.395E+00  5.875E+00  1.342E-03  5.289E-03 -6.343E-05\n',
               '-   1    4   54     1    54    1.9981E+01  5.2245E-03   '
               '1.9976E+01  0.000E+00  0.000E+00  0.000E+00  1.27345E+02  '
               '3.395E+00  5.874E+00  1.341E-03  5.286E-03 -6.129E-05\n',
               '-   1    4   55     1    55    1.9976E+01  5.2234E-03   '
               '1.9971E+01  0.000E+00  0.000E+00  0.000E+00  1.27044E+02  '
               '3.394E+00  5.874E+00  1.341E-03  5.282E-03 -5.889E-05\n',
               '-   1    4   56     1    56    1.9971E+01  5.2222E-03   '
               '1.9966E+01  0.000E+00  0.000E+00  0.000E+00  1.26744E+02  '
               '3.394E+00  5.873E+00  1.341E-03  5.278E-03 -5.623E-05\n',
               '-   1    4   57     1    57    1.9966E+01  5.2211E-03   '
               '1.9961E+01  0.000E+00  0.000E+00  0.000E+00  1.26443E+02  '
               '3.393E+00  5.873E+00  1.341E-03  5.274E-03 -5.329E-05\n',
               '-   1    4   58     1    58    1.9961E+01  5.2200E-03   '
               '1.9955E+01  0.000E+00  0.000E+00  0.000E+00  1.26143E+02  '
               '3.393E+00  5.872E+00  1.341E-03  5.270E-03 -5.005E-05\n',
               '-   1    4   59     1    59    1.9955E+01  5.2188E-03   '
               '1.9950E+01  0.000E+00  0.000E+00  0.000E+00  1.25843E+02  '
               '3.393E+00  5.871E+00  1.341E-03  5.265E-03 -4.650E-05\n',
               '-   1    4   60     1    60    1.9950E+01  5.2177E-03   '
               '1.9945E+01  0.000E+00  0.000E+00  0.000E+00  1.25542E+02  '
               '3.392E+00  5.871E+00  1.341E-03  5.260E-03 -4.263E-05\n',
               '-   1    4   61     1    61    1.9945E+01  5.2166E-03   '
               '1.9940E+01  0.000E+00  0.000E+00  0.000E+00  1.25242E+02  '
               '3.392E+00  5.870E+00  1.340E-03  5.255E-03 -3.843E-05\n',
               '-   1    4   62     1    62    1.9940E+01  5.2155E-03   '
               '1.9934E+01  0.000E+00  0.000E+00  0.000E+00  1.24941E+02  '
               '3.391E+00  5.870E+00  1.340E-03  5.249E-03 -3.388E-05\n',
               '-   1    4   63     1    63    1.9934E+01  5.2143E-03   '
               '1.9929E+01  0.000E+00  0.000E+00  0.000E+00  1.24641E+02  '
               '3.391E+00  5.869E+00  1.340E-03  5.243E-03 -2.899E-05\n',
               '-   1    4   64     1    64    1.9929E+01  5.2132E-03   '
               '1.9924E+01  0.000E+00  0.000E+00  0.000E+00  1.24340E+02  '
               '3.390E+00  5.869E+00  1.340E-03  5.237E-03 -2.377E-05\n',
               '-   1    4   65     1    65    1.9924E+01  5.2121E-03   '
               '1.9919E+01  0.000E+00  0.000E+00  0.000E+00  1.24040E+02  '
               '3.390E+00  5.868E+00  1.340E-03  5.230E-03 -1.820E-05\n',
               '-   1    4   66     1    66    1.9919E+01  5.2109E-03   '
               '1.9914E+01  0.000E+00  0.000E+00  0.000E+00  1.23740E+02  '
               '3.390E+00  5.868E+00  1.340E-03  5.223E-03 -1.231E-05\n',
               '-   1    4   67     1    67    1.9914E+01  5.2098E-03   '
               '1.9908E+01  0.000E+00  0.000E+00  0.000E+00  1.23439E+02  '
               '3.389E+00  5.867E+00  1.340E-03  5.216E-03 -6.112E-06\n',
               '-   1    4   68     1    68    1.9908E+01  5.2087E-03   '
               '1.9903E+01  0.000E+00  0.000E+00  0.000E+00  1.23139E+02  '
               '3.389E+00  5.867E+00  1.339E-03  5.208E-03  3.792E-07\n',
               '-   1    4   69     1    69    1.9903E+01  5.2076E-03   '
               '1.9898E+01  0.000E+00  0.000E+00  0.000E+00  1.22838E+02  '
               '3.388E+00  5.866E+00  1.339E-03  5.200E-03  7.126E-06\n',
               '-   1    4   70     1    70    1.9898E+01  5.2064E-03   '
               '1.9893E+01  0.000E+00  0.000E+00  0.000E+00  1.22538E+02  '
               '3.388E+00  5.866E+00  1.339E-03  5.192E-03  1.410E-05\n',
               '-   1    4   71     1    71    1.9893E+01  5.2053E-03   '
               '1.9888E+01  0.000E+00  0.000E+00  0.000E+00  1.22237E+02  '
               '3.387E+00  5.865E+00  1.339E-03  5.184E-03  2.125E-05\n',
               '-   1    4   72     1    72    1.9888E+01  5.2042E-03   '
               '1.9882E+01  0.000E+00  0.000E+00  0.000E+00  1.21937E+02  '
               '3.387E+00  5.865E+00  1.339E-03  5.176E-03  2.854E-05\n',
               '-   1    4   73     1    73    1.9882E+01  5.2030E-03   '
               '1.9877E+01  0.000E+00  0.000E+00  0.000E+00  1.21637E+02  '
               '3.387E+00  5.864E+00  1.339E-03  5.167E-03  3.590E-05\n',
               '-   1    4   74     1    74    1.9877E+01  5.2019E-03   '
               '1.9872E+01  0.000E+00  0.000E+00  0.000E+00  1.21336E+02  '
               '3.386E+00  5.864E+00  1.339E-03  5.159E-03  4.328E-05\n',
               '-   1    4   75     1    75    1.9872E+01  5.2008E-03   '
               '1.9867E+01  0.000E+00  0.000E+00  0.000E+00  1.21036E+02  '
               '3.386E+00  5.863E+00  1.338E-03  5.150E-03  5.060E-05\n',
               '-   1    4   76     1    76    1.9867E+01  5.1997E-03   '
               '1.9862E+01  0.000E+00  0.000E+00  0.000E+00  1.20735E+02  '
               '3.385E+00  5.863E+00  1.338E-03  5.142E-03  5.779E-05\n',
               '-   1    4   77     1    77    1.9862E+01  5.1985E-03   '
               '1.9856E+01  0.000E+00  0.000E+00  0.000E+00  1.20435E+02  '
               '3.385E+00  5.862E+00  1.338E-03  5.134E-03  6.476E-05\n',
               '-   1    4   78     1    78    1.9856E+01  5.1974E-03   '
               '1.9851E+01  0.000E+00  0.000E+00  0.000E+00  1.20134E+02  '
               '3.384E+00  5.862E+00  1.338E-03  5.126E-03  7.144E-05\n',
               '-   1    4   79     1    79    1.9851E+01  5.1963E-03   '
               '1.9846E+01  0.000E+00  0.000E+00  0.000E+00  1.19834E+02  '
               '3.384E+00  5.861E+00  1.338E-03  5.119E-03  7.773E-05\n',
               '-   1    4   80     1    80    1.9846E+01  5.1952E-03   '
               '1.9841E+01  0.000E+00  0.000E+00  0.000E+00  1.19534E+02  '
               '3.384E+00  5.861E+00  1.338E-03  5.112E-03  8.353E-05\n',
               '-   1    4   81     1    81    1.9841E+01  5.1940E-03   '
               '1.9836E+01  0.000E+00  0.000E+00  0.000E+00  1.19233E+02  '
               '3.383E+00  5.860E+00  1.338E-03  5.105E-03  8.877E-05\n',
               '-   1    4   82     1    82    1.9836E+01  5.1929E-03   '
               '1.9830E+01  0.000E+00  0.000E+00  0.000E+00  1.18933E+02  '
               '3.383E+00  5.860E+00  1.337E-03  5.100E-03  9.333E-05\n',
               '-   1    4   83     1    83    1.9830E+01  5.1918E-03   '
               '1.9825E+01  0.000E+00  0.000E+00  0.000E+00  1.18632E+02  '
               '3.382E+00  5.859E+00  1.337E-03  5.095E-03  9.712E-05\n',
               '-   1    4   84     1    84    1.9825E+01  5.1907E-03   '
               '1.9820E+01  0.000E+00  0.000E+00  0.000E+00  1.18332E+02  '
               '3.382E+00  5.859E+00  1.337E-03  5.091E-03  1.001E-04\n',
               '-   1    4   85     1    85    1.9820E+01  5.1895E-03   '
               '1.9815E+01  0.000E+00  0.000E+00  0.000E+00  1.18031E+02  '
               '3.381E+00  5.858E+00  1.337E-03  5.087E-03  1.020E-04\n',
               '-   1    4   86     1    86    1.9815E+01  5.1884E-03   '
               '1.9810E+01  0.000E+00  0.000E+00  0.000E+00  1.17731E+02  '
               '3.381E+00  5.858E+00  1.337E-03  5.085E-03  1.030E-04\n',
               '-   1    4   87     1    87    1.9810E+01  5.1873E-03   '
               '1.9804E+01  0.000E+00  0.000E+00  0.000E+00  1.17430E+02  '
               '3.380E+00  5.857E+00  1.337E-03  5.084E-03  1.029E-04\n',
               '-   1    4   88     1    88    1.9804E+01  5.1862E-03   '
               '1.9799E+01  0.000E+00  0.000E+00  0.000E+00  1.17130E+02  '
               '3.380E+00  5.856E+00  1.337E-03  5.085E-03  1.016E-04\n',
               '-   1    4   89     1    89    1.9799E+01  5.1850E-03   '
               '1.9794E+01  0.000E+00  0.000E+00  0.000E+00  1.16830E+02  '
               '3.380E+00  5.856E+00  1.337E-03  5.086E-03  9.904E-05\n',
               '-   1    4   90     1    90    1.9794E+01  5.1839E-03   '
               '1.9789E+01  0.000E+00  0.000E+00  0.000E+00  1.16529E+02  '
               '3.379E+00  5.855E+00  1.336E-03  5.089E-03  9.526E-05\n',
               '-   1    4   91     1    91    1.9789E+01  5.1828E-03   '
               '1.9784E+01  0.000E+00  0.000E+00  0.000E+00  1.16229E+02  '
               '3.379E+00  5.855E+00  1.336E-03  5.093E-03  9.019E-05\n',
               '-   1    4   92     1    92    1.9784E+01  5.1817E-03   '
               '1.9779E+01  0.000E+00  0.000E+00  0.000E+00  1.15928E+02  '
               '3.378E+00  5.854E+00  1.336E-03  5.098E-03  8.383E-05\n',
               '-   1    4   93     1    93    1.9779E+01  5.1805E-03   '
               '1.9773E+01  0.000E+00  0.000E+00  0.000E+00  1.15628E+02  '
               '3.378E+00  5.854E+00  1.336E-03  5.104E-03  7.618E-05\n',
               '-   1    4   94     1    94    1.9773E+01  5.1794E-03   '
               '1.9768E+01  0.000E+00  0.000E+00  0.000E+00  1.15327E+02  '
               '3.377E+00  5.853E+00  1.336E-03  5.112E-03  6.727E-05\n',
               '-   1    4   95     1    95    1.9768E+01  5.1783E-03   '
               '1.9763E+01  0.000E+00  0.000E+00  0.000E+00  1.15027E+02  '
               '3.377E+00  5.853E+00  1.336E-03  5.121E-03  5.716E-05\n',
               '-   1    4   96     1    96    1.9763E+01  5.1772E-03   '
               '1.9758E+01  0.000E+00  0.000E+00  0.000E+00  1.14727E+02  '
               '3.377E+00  5.852E+00  1.336E-03  5.131E-03  4.589E-05\n',
               '-   1    4   97     1    97    1.9758E+01  5.1761E-03   '
               '1.9753E+01  0.000E+00  0.000E+00  0.000E+00  1.14426E+02  '
               '3.376E+00  5.852E+00  1.335E-03  5.143E-03  3.342E-05\n',
               '-   1    4   98     1    98    1.9753E+01  5.1749E-03   '
               '1.9747E+01  0.000E+00  0.000E+00  0.000E+00  1.14126E+02  '
               '3.376E+00  5.851E+00  1.335E-03  5.156E-03  1.853E-05\n',
               '-   1    4   99     1    99    1.9747E+01  5.1738E-03   '
               '1.9742E+01  0.000E+00  0.000E+00  0.000E+00  1.13825E+02  '
               '3.375E+00  5.851E+00  1.335E-03  4.859E-03  3.151E-04\n',
               '-   1    4  100     1   100    1.9742E+01  5.1727E-03   '
               '1.9737E+01  0.000E+00  0.000E+00  0.000E+00  1.13525E+02  '
               '3.375E+00  5.850E+00  1.335E-03  4.342E-03  8.306E-04\n',
               '-\n',
               '-\n',
               '-\n',
               '-1\n',
               '-  VOLUMETRIC BUDGET FOR UNSATURATED ZONE BENEATH STREAMS AT '
               'END OF TIME STEP    30 STRESS PERIOD   5\n',
               '-  '
               '------------------------------------------------------------------------------------------------\n',
               '-\n',
               '-    CUMULATIVE VOLUMES             L**3    RATES FOR THIS '
               'TIME STEP         L**3/T\n',
               '-    ------------------                     '
               '------------------------\n',
               '-\n',
               '-\n',
               '-          STREAM LOSS =      3290919.2500            STREAM '
               'LOSS =            0.5229\n',
               '-    CHANGE IN STORAGE =       817840.4375      CHANGE IN '
               'STORAGE =       -1.4490E-03\n',
               '-       RECHARGE TO GW =      2475997.2500         RECHARGE TO '
               'GW =            0.5243\n',
               '-\n',
               '-             TOTAL IN =      3290919.2500               TOTAL '
               'IN =            0.5243\n',
               '-\n',
               '-            TOTAL OUT =      3293837.7500              TOTAL '
               'OUT =            0.5243\n',
               '-\n',
               '-             IN - OUT =        -2918.5000               IN - '
               'OUT =        1.7881E-07\n',
               '-\n',
               '-  PERCENT DISCREPANCY =           -0.02      PERCENT '
               'DISCREPANCY =             0.00\n',
               '-\n',
               '-\n',
               '-\n',
               '-1\n',
               '-              HEAD IN LAYER   1 AT END OF TIME STEP  30 IN '
               'STRESS PERIOD    5\n',
               '-  '
               '---------------------------------------------------------------------------\n',
               '-\n',
               '-          1      2      3      4      5      6      7      '
               '8      9     10\n',
               '-         11     12     13     14     15     16     17     '
               '18     19     20\n',
               '-         21     22     23     24     25     26     27     '
               '28     29     30\n',
               '-         31     32     33     34     35     36     37     '
               '38     39     40\n',
               '-         41     42     43     44     45     46     47     '
               '48     49     50\n',
               '-         51     52     53     54     55     56     57     '
               '58     59     60\n',
               '-         61     62     63     64     65     66     67     '
               '68     69     70\n',
               '-         71     72     73     74     75     76     77     '
               '78     79     80\n',
               '-         81     82     83     84     85     86     87     '
               '88     89     90\n',
               '-         91     92     93     94     95     96     97     '
               '98     99    100\n',
               '- '
               '.........................................................................\n',
               '-   1   104.9  104.9  104.9  104.9  104.9  104.9  104.9  '
               '104.9  104.9  104.9\n',
               '-       104.9  104.9  104.9  104.9  104.9  104.9  104.9  '
               '104.9  105.0  105.0\n',
               '-       105.0  105.0  105.0  105.0  105.0  105.0  105.0  '
               '105.0  105.0  105.0\n',
               '-       105.0  105.0  105.0  105.0  105.0  105.0  105.0  '
               '105.0  105.0  105.0\n',
               '-       105.0  105.0  105.0  105.0  105.0  105.0  105.0  '
               '105.0  105.0  105.0\n',
               '-       105.0  105.0  105.0  104.9  104.9  104.9  104.8  '
               '104.8  104.7  104.7\n',
               '-       104.6  104.5  104.4  104.3  104.2  104.1  103.9  '
               '103.8  103.6  103.3\n',
               '-       103.1  102.8  102.5  102.2  101.8  101.4  101.0  '
               '100.5  100.0   99.4\n',
               '-        98.8   98.1   97.4   96.6   95.8   94.8   93.9   '
               '92.9   91.8   90.6\n',
               '-        89.4   88.1   86.7   85.2   83.7   82.1   80.5   '
               '78.7   76.9   75.0\n',
               '-   2   104.9  104.9  104.9  104.9  104.9  104.9  104.9  '
               '104.9  104.9  104.9\n',
               '-       104.9  104.9  104.9  104.9  104.9  104.9  104.9  '
               '105.0  105.0  105.0\n',
               '-       105.0  105.0  105.0  105.0  105.0  105.0  105.0  '
               '105.0  105.0  105.0\n',
               '-       105.0  105.0  105.0  105.0  105.0  105.0  105.0  '
               '105.0  105.0  105.0\n',
               '-       105.0  105.0  105.0  105.0  105.0  105.0  105.0  '
               '105.0  105.0  105.0\n',
               '-       105.0  105.0  105.0  104.9  104.9  104.9  104.8  '
               '104.8  104.7  104.7\n',
               '-       104.6  104.5  104.4  104.3  104.2  104.1  103.9  '
               '103.8  103.6  103.3\n',
               '-       103.1  102.8  102.5  102.2  101.8  101.4  101.0  '
               '100.5  100.0   99.4\n',
               '-        98.8   98.1   97.4   96.6   95.8   94.9   93.9   '
               '92.9   91.8   90.6\n',
               '-        89.4   88.1   86.7   85.2   83.7   82.1   80.5   '
               '78.7   76.9   75.0\n',
               '-   3   104.9  104.9  104.9  104.9  104.9  104.9  104.9  '
               '104.9  104.9  104.9\n',
               '-       104.9  104.9  104.9  104.9  104.9  105.0  105.0  '
               '105.0  105.0  105.0\n',
               '-       105.0  105.0  105.0  105.0  105.0  105.0  105.0  '
               '105.0  105.0  105.0\n',
               '-       105.0  105.0  105.0  105.0  105.0  105.0  105.0  '
               '105.0  105.0  105.0\n',
               '-       105.0  105.0  105.0  105.0  105.0  105.0  105.0  '
               '105.0  105.0  105.0\n',
               '-       105.0  105.0  105.0  104.9  104.9  104.9  104.8  '
               '104.8  104.7  104.7\n',
               '-       104.6  104.5  104.4  104.3  104.2  104.1  103.9  '
               '103.8  103.6  103.4\n',
               '-       103.1  102.8  102.5  102.2  101.8  101.4  101.0  '
               '100.5  100.0   99.4\n',
               '-        98.8   98.1   97.4   96.6   95.8   94.9   93.9   '
               '92.9   91.8   90.6\n',
               '-        89.4   88.1   86.7   85.3   83.7   82.1   80.5   '
               '78.7   76.9   75.0\n',
               '-   4   104.9  104.9  104.9  104.9  104.9  104.9  104.9  '
               '104.9  104.9  104.9\n',
               '-       104.9  104.9  105.0  105.0  105.0  105.0  105.0  '
               '105.0  105.0  105.0\n',
               '-       105.0  105.0  105.0  105.0  105.0  105.0  105.0  '
               '105.0  105.0  105.0\n',
               '-       105.0  105.0  105.0  105.0  105.0  105.0  105.0  '
               '105.0  105.0  105.0\n',
               '-       105.1  105.1  105.1  105.1  105.0  105.0  105.0  '
               '105.0  105.0  105.0\n',
               '-       105.0  105.0  105.0  105.0  104.9  104.9  104.9  '
               '104.8  104.8  104.7\n',
               '-       104.6  104.6  104.5  104.4  104.2  104.1  103.9  '
               '103.8  103.6  103.4\n',
               '-       103.1  102.9  102.6  102.2  101.9  101.5  101.0  '
               '100.5  100.0   99.4\n',
               '-        98.8   98.1   97.4   96.6   95.8   94.9   93.9   '
               '92.9   91.8   90.6\n',
               '-        89.4   88.1   86.7   85.3   83.7   82.2   80.5   '
               '78.7   76.9   75.0\n',
               '-   5   104.9  104.9  104.9  104.9  104.9  104.9  104.9  '
               '104.9  104.9  104.9\n',
               '-       104.9  104.9  104.9  104.9  104.9  105.0  105.0  '
               '105.0  105.0  105.0\n',
               '-       105.0  105.0  105.0  105.0  105.0  105.0  105.0  '
               '105.0  105.0  105.0\n',
               '-       105.0  105.0  105.0  105.0  105.0  105.0  105.0  '
               '105.0  105.0  105.0\n',
               '-       105.0  105.0  105.0  105.0  105.0  105.0  105.0  '
               '105.0  105.0  105.0\n',
               '-       105.0  105.0  105.0  104.9  104.9  104.9  104.8  '
               '104.8  104.7  104.7\n',
               '-       104.6  104.5  104.4  104.3  104.2  104.1  103.9  '
               '103.8  103.6  103.4\n',
               '-       103.1  102.8  102.5  102.2  101.8  101.4  101.0  '
               '100.5  100.0   99.4\n',
               '-        98.8   98.1   97.4   96.6   95.8   94.9   93.9   '
               '92.9   91.8   90.6\n',
               '-        89.4   88.1   86.7   85.3   83.7   82.1   80.5   '
               '78.7   76.9   75.0\n',
               '-   6   104.9  104.9  104.9  104.9  104.9  104.9  104.9  '
               '104.9  104.9  104.9\n',
               '-       104.9  104.9  104.9  104.9  104.9  104.9  104.9  '
               '105.0  105.0  105.0\n',
               '-       105.0  105.0  105.0  105.0  105.0  105.0  105.0  '
               '105.0  105.0  105.0\n',
               '-       105.0  105.0  105.0  105.0  105.0  105.0  105.0  '
               '105.0  105.0  105.0\n',
               '-       105.0  105.0  105.0  105.0  105.0  105.0  105.0  '
               '105.0  105.0  105.0\n',
               '-       105.0  105.0  105.0  104.9  104.9  104.9  104.8  '
               '104.8  104.7  104.7\n',
               '-       104.6  104.5  104.4  104.3  104.2  104.1  103.9  '
               '103.8  103.6  103.3\n',
               '-       103.1  102.8  102.5  102.2  101.8  101.4  101.0  '
               '100.5  100.0   99.4\n',
               '-        98.8   98.1   97.4   96.6   95.8   94.9   93.9   '
               '92.9   91.8   90.6\n',
               '-        89.4   88.1   86.7   85.2   83.7   82.1   80.5   '
               '78.7   76.9   75.0\n',
               '-   7   104.9  104.9  104.9  104.9  104.9  104.9  104.9  '
               '104.9  104.9  104.9\n',
               '-       104.9  104.9  104.9  104.9  104.9  104.9  104.9  '
               '104.9  105.0  105.0\n',
               '-       105.0  105.0  105.0  105.0  105.0  105.0  105.0  '
               '105.0  105.0  105.0\n',
               '-       105.0  105.0  105.0  105.0  105.0  105.0  105.0  '
               '105.0  105.0  105.0\n',
               '-       105.0  105.0  105.0  105.0  105.0  105.0  105.0  '
               '105.0  105.0  105.0\n',
               '-       105.0  105.0  105.0  104.9  104.9  104.9  104.8  '
               '104.8  104.7  104.7\n',
               '-       104.6  104.5  104.4  104.3  104.2  104.1  103.9  '
               '103.8  103.6  103.3\n',
               '-       103.1  102.8  102.5  102.2  101.8  101.4  101.0  '
               '100.5  100.0   99.4\n',
               '-        98.8   98.1   97.4   96.6   95.8   94.8   93.9   '
               '92.9   91.8   90.6\n',
               '-        89.4   88.1   86.7   85.2   83.7   82.1   80.5   '
               '78.7   76.9   75.0\n',
               '-1\n',
               '-  VOLUMETRIC BUDGET FOR ENTIRE MODEL AT END OF TIME STEP   '
               '30, STRESS PERIOD   5\n',
               '-  '
               '------------------------------------------------------------------------------\n',
               '-\n',
               '-     CUMULATIVE VOLUMES      L**3       RATES FOR THIS TIME '
               'STEP      L**3/T\n',
               '-     ------------------                 '
               '------------------------\n',
               '-\n',
               '-           IN:                                      IN:\n',
               '-           ---                                      ---\n',
               '-             STORAGE =     7053799.5000               STORAGE '
               '=           0.1382\n',
               '-       CONSTANT HEAD =           0.0000         CONSTANT HEAD '
               '=           0.0000\n',
               '-     HEAD DEP BOUNDS =           0.0000       HEAD DEP BOUNDS '
               '=           0.0000\n',
               '-      STREAM LEAKAGE =     2476000.5000        STREAM LEAKAGE '
               '=           0.5243\n',
               '-\n',
               '-            TOTAL IN =     9529800.0000              TOTAL IN '
               '=           0.6625\n',
               '-\n',
               '-          OUT:                                     OUT:\n',
               '-          ----                                     ----\n',
               '-             STORAGE =     1444634.8750               STORAGE '
               '=           0.3131\n',
               '-       CONSTANT HEAD =           0.0000         CONSTANT HEAD '
               '=           0.0000\n',
               '-     HEAD DEP BOUNDS =     8085141.5000       HEAD DEP BOUNDS '
               '=           0.3493\n',
               '-      STREAM LEAKAGE =           0.0000        STREAM LEAKAGE '
               '=           0.0000\n',
               '-\n',
               '-           TOTAL OUT =     9529776.0000             TOTAL OUT '
               '=           0.6625\n',
               '-\n',
               '-            IN - OUT =          24.0000              IN - OUT '
               '=       5.5671E-05\n',
               '-\n',
               '- PERCENT DISCREPANCY =           0.00     PERCENT DISCREPANCY '
               '=           0.01\n',
               '-\n',
               '-\n',
               '-\n',
               '-\n',
               '-\n',
               '-\n',
               '-         TIME SUMMARY AT END OF TIME STEP   30 IN STRESS '
               'PERIOD    5\n',
               '-                    SECONDS     MINUTES      HOURS       '
               'DAYS        YEARS\n',
               '-                    '
               '-----------------------------------------------------------\n',
               '-   TIME STEP LENGTH 2.49961E+05  4166.0      69.434      '
               '2.8931     7.92080E-03\n',
               '- STRESS PERIOD TIME 2.59200E+06  43200.      720.00      '
               '30.000     8.21355E-02\n',
               '-         TOTAL TIME 1.29600E+07 2.16000E+05  3600.0      '
               '150.00     0.41068    \n',
               '-1\n',
               '-1\n',
               '-                            STRESS PERIOD NO.    6, LENGTH '
               '=   2592000.    \n',
               '-                            '
               '-----------------------------------------------\n',
               '-\n',
               '-                              NUMBER OF TIME STEPS =    30\n',
               '-\n',
               '-                               MULTIPLIER FOR DELT =     '
               '1.100\n',
               '-\n',
               '-                            INITIAL TIME STEP SIZE =   '
               '15757.40    \n',
               '-\n',
               '- REUSING NON-PARAMETER GHB CELLS FROM LAST STRESS PERIOD\n',
               '-\n',
               '-      7 GHB CELLS\n',
               '- \n',
               '- SOLVING FOR HEAD \n',
               '-\n',
               '- NO OUTPUT CONTROL FOR STRESS PERIOD    6   TIME STEP    1\n',
               '- \n',
               '- SOLVING FOR HEAD \n',
               '-\n',
               '- NO OUTPUT CONTROL FOR STRESS PERIOD    6   TIME STEP    2\n',
               '- \n',
               '- SOLVING FOR HEAD \n',
               '-\n',
               '- NO OUTPUT CONTROL FOR STRESS PERIOD    6   TIME STEP    3\n',
               '- \n',
               '- SOLVING FOR HEAD \n',
               '-\n',
               '- NO OUTPUT CONTROL FOR STRESS PERIOD    6   TIME STEP    4\n',
               '- \n',
               '- SOLVING FOR HEAD \n',
               '-\n',
               '- NO OUTPUT CONTROL FOR STRESS PERIOD    6   TIME STEP    5\n',
               '- \n',
               '- SOLVING FOR HEAD \n',
               '-\n',
               '- NO OUTPUT CONTROL FOR STRESS PERIOD    6   TIME STEP    6\n',
               '- \n',
               '- SOLVING FOR HEAD \n',
               '-\n',
               '- NO OUTPUT CONTROL FOR STRESS PERIOD    6   TIME STEP    7\n',
               '- \n',
               '- SOLVING FOR HEAD \n',
               '-\n',
               '- NO OUTPUT CONTROL FOR STRESS PERIOD    6   TIME STEP    8\n',
               '- \n',
               '- SOLVING FOR HEAD \n',
               '-\n',
               '- NO OUTPUT CONTROL FOR STRESS PERIOD    6   TIME STEP    9\n',
               '- \n',
               '- SOLVING FOR HEAD \n',
               '-\n',
               '- NO OUTPUT CONTROL FOR STRESS PERIOD    6   TIME STEP   10\n',
               '- \n',
               '- SOLVING FOR HEAD \n',
               '-\n',
               '- NO OUTPUT CONTROL FOR STRESS PERIOD    6   TIME STEP   11\n',
               '- \n',
               '- SOLVING FOR HEAD \n',
               '-\n',
               '- NO OUTPUT CONTROL FOR STRESS PERIOD    6   TIME STEP   12\n',
               '- \n',
               '- SOLVING FOR HEAD \n',
               '-\n',
               '- NO OUTPUT CONTROL FOR STRESS PERIOD    6   TIME STEP   13\n',
               '- \n',
               '- SOLVING FOR HEAD \n',
               '-\n',
               '- NO OUTPUT CONTROL FOR STRESS PERIOD    6   TIME STEP   14\n',
               '- \n',
               '- SOLVING FOR HEAD \n',
               '-\n',
               '- NO OUTPUT CONTROL FOR STRESS PERIOD    6   TIME STEP   15\n',
               '- \n',
               '- SOLVING FOR HEAD \n',
               '-\n',
               '- NO OUTPUT CONTROL FOR STRESS PERIOD    6   TIME STEP   16\n',
               '- \n',
               '- SOLVING FOR HEAD \n',
               '-\n',
               '- NO OUTPUT CONTROL FOR STRESS PERIOD    6   TIME STEP   17\n',
               '- \n',
               '- SOLVING FOR HEAD \n',
               '-\n',
               '- NO OUTPUT CONTROL FOR STRESS PERIOD    6   TIME STEP   18\n',
               '- \n',
               '- SOLVING FOR HEAD \n',
               '-\n',
               '- NO OUTPUT CONTROL FOR STRESS PERIOD    6   TIME STEP   19\n',
               '- \n',
               '- SOLVING FOR HEAD \n',
               '-\n',
               '- NO OUTPUT CONTROL FOR STRESS PERIOD    6   TIME STEP   20\n',
               '- \n',
               '- SOLVING FOR HEAD \n',
               '-\n',
               '- NO OUTPUT CONTROL FOR STRESS PERIOD    6   TIME STEP   21\n',
               '- \n',
               '- SOLVING FOR HEAD \n',
               '-\n',
               '- NO OUTPUT CONTROL FOR STRESS PERIOD    6   TIME STEP   22\n',
               '- \n',
               '- SOLVING FOR HEAD \n',
               '-\n',
               '- NO OUTPUT CONTROL FOR STRESS PERIOD    6   TIME STEP   23\n',
               '- \n',
               '- SOLVING FOR HEAD \n',
               '-\n',
               '- NO OUTPUT CONTROL FOR STRESS PERIOD    6   TIME STEP   24\n',
               '- \n',
               '- SOLVING FOR HEAD \n',
               '-\n',
               '- NO OUTPUT CONTROL FOR STRESS PERIOD    6   TIME STEP   25\n',
               '- \n',
               '- SOLVING FOR HEAD \n',
               '-\n',
               '- NO OUTPUT CONTROL FOR STRESS PERIOD    6   TIME STEP   26\n',
               '- \n',
               '- SOLVING FOR HEAD \n',
               '-\n',
               '- NO OUTPUT CONTROL FOR STRESS PERIOD    6   TIME STEP   27\n',
               '- \n',
               '- SOLVING FOR HEAD \n',
               '-\n',
               '- NO OUTPUT CONTROL FOR STRESS PERIOD    6   TIME STEP   28\n',
               '- \n',
               '- SOLVING FOR HEAD \n',
               '-\n',
               '- NO OUTPUT CONTROL FOR STRESS PERIOD    6   TIME STEP   29\n',
               '- \n',
               '- SOLVING FOR HEAD \n',
               '-\n',
               '- NO OUTPUT CONTROL FOR STRESS PERIOD    6   TIME STEP   30\n',
               '-\n',
               '-\n',
               '-\n',
               '- STREAM LISTING     PERIOD      6   STEP       30\n',
               '-\n',
               '- LAYER ROW COL. STREAM  RCH.   FLOW INTO    STREAM     FLOW '
               'OUT OF   OVRLND.    DIRECT     STREAM      STREAM      '
               'STREAM     STREAM  STREAMBED   FLOW TO   CHNG. UNSAT. \n',
               '-                SEG.NO.  NO.   STRM. RCH.    LOSS       STRM. '
               'RCH.   RUNOFF     PRECIP       ET         HEAD        '
               'DEPTH      WIDTH  CONDCTNC.   WAT. TAB.\n',
               '-\n',
               '-   1    4    1     1     1    3.5610E+01  8.9049E-03   '
               '3.5601E+01  0.000E+00  0.000E+00  0.000E+00  1.44129E+02  '
               '4.279E+00  9.115E+00  1.863E-03  8.480E-03  4.248E-04\n',
               '-   1    4    2     1     2    3.5601E+01  8.9029E-03   '
               '3.5592E+01  0.000E+00  0.000E+00  0.000E+00  1.43828E+02  '
               '4.278E+00  9.114E+00  1.863E-03  8.479E-03  4.235E-04\n',
               '-   1    4    3     1     3    3.5592E+01  8.9009E-03   '
               '3.5583E+01  0.000E+00  0.000E+00  0.000E+00  1.43528E+02  '
               '4.278E+00  9.112E+00  1.863E-03  8.479E-03  4.222E-04\n',
               '-   1    4    4     1     4    3.5583E+01  8.8989E-03   '
               '3.5574E+01  0.000E+00  0.000E+00  0.000E+00  1.43228E+02  '
               '4.278E+00  9.110E+00  1.863E-03  8.478E-03  4.210E-04\n',
               '-   1    4    5     1     5    3.5574E+01  8.8968E-03   '
               '3.5565E+01  0.000E+00  0.000E+00  0.000E+00  1.42927E+02  '
               '4.277E+00  9.109E+00  1.862E-03  8.477E-03  4.198E-04\n',
               '-   1    4    6     1     6    3.5565E+01  8.8948E-03   '
               '3.5557E+01  0.000E+00  0.000E+00  0.000E+00  1.42627E+02  '
               '4.277E+00  9.107E+00  1.862E-03  8.476E-03  4.186E-04\n',
               '-   1    4    7     1     7    3.5557E+01  8.8928E-03   '
               '3.5548E+01  0.000E+00  0.000E+00  0.000E+00  1.42326E+02  '
               '4.276E+00  9.105E+00  1.862E-03  8.475E-03  4.174E-04\n',
               '-   1    4    8     1     8    3.5548E+01  8.8908E-03   '
               '3.5539E+01  0.000E+00  0.000E+00  0.000E+00  1.42026E+02  '
               '4.276E+00  9.104E+00  1.862E-03  8.475E-03  4.162E-04\n',
               '-   1    4    9     1     9    3.5539E+01  8.8887E-03   '
               '3.5530E+01  0.000E+00  0.000E+00  0.000E+00  1.41726E+02  '
               '4.276E+00  9.102E+00  1.861E-03  8.474E-03  4.150E-04\n',
               '-   1    4   10     1    10    3.5530E+01  8.8867E-03   '
               '3.5521E+01  0.000E+00  0.000E+00  0.000E+00  1.41425E+02  '
               '4.275E+00  9.100E+00  1.861E-03  8.473E-03  4.138E-04\n',
               '-   1    4   11     1    11    3.5521E+01  8.8847E-03   '
               '3.5512E+01  0.000E+00  0.000E+00  0.000E+00  1.41125E+02  '
               '4.275E+00  9.099E+00  1.861E-03  8.472E-03  4.126E-04\n',
               '-   1    4   12     1    12    3.5512E+01  8.8827E-03   '
               '3.5503E+01  0.000E+00  0.000E+00  0.000E+00  1.40824E+02  '
               '4.274E+00  9.097E+00  1.861E-03  8.471E-03  4.114E-04\n',
               '-   1    4   13     1    13    3.5503E+01  8.8807E-03   '
               '3.5494E+01  0.000E+00  0.000E+00  0.000E+00  1.40524E+02  '
               '4.274E+00  9.095E+00  1.860E-03  8.471E-03  4.102E-04\n',
               '-   1    4   14     1    14    3.5494E+01  8.8786E-03   '
               '3.5485E+01  0.000E+00  0.000E+00  0.000E+00  1.40223E+02  '
               '4.273E+00  9.094E+00  1.860E-03  8.470E-03  4.089E-04\n',
               '-   1    4   15     1    15    3.5485E+01  8.8766E-03   '
               '3.5477E+01  0.000E+00  0.000E+00  0.000E+00  1.39923E+02  '
               '4.273E+00  9.092E+00  1.860E-03  8.469E-03  4.077E-04\n',
               '-   1    4   16     1    16    3.5477E+01  8.8746E-03   '
               '3.5468E+01  0.000E+00  0.000E+00  0.000E+00  1.39623E+02  '
               '4.273E+00  9.090E+00  1.860E-03  8.468E-03  4.065E-04\n',
               '-   1    4   17     1    17    3.5468E+01  8.8726E-03   '
               '3.5459E+01  0.000E+00  0.000E+00  0.000E+00  1.39322E+02  '
               '4.272E+00  9.089E+00  1.859E-03  8.467E-03  4.053E-04\n',
               '-   1    4   18     1    18    3.5459E+01  8.8706E-03   '
               '3.5450E+01  0.000E+00  0.000E+00  0.000E+00  1.39022E+02  '
               '4.272E+00  9.087E+00  1.859E-03  8.467E-03  4.040E-04\n',
               '-   1    4   19     1    19    3.5450E+01  8.8686E-03   '
               '3.5441E+01  0.000E+00  0.000E+00  0.000E+00  1.38721E+02  '
               '4.271E+00  9.085E+00  1.859E-03  8.466E-03  4.028E-04\n',
               '-   1    4   20     1    20    3.5441E+01  8.8665E-03   '
               '3.5432E+01  0.000E+00  0.000E+00  0.000E+00  1.38421E+02  '
               '4.271E+00  9.084E+00  1.858E-03  8.465E-03  4.016E-04\n',
               '-   1    4   21     1    21    3.5432E+01  8.8645E-03   '
               '3.5423E+01  0.000E+00  0.000E+00  0.000E+00  1.38121E+02  '
               '4.271E+00  9.082E+00  1.858E-03  8.464E-03  4.003E-04\n',
               '-   1    4   22     1    22    3.5423E+01  8.8625E-03   '
               '3.5415E+01  0.000E+00  0.000E+00  0.000E+00  1.37820E+02  '
               '4.270E+00  9.080E+00  1.858E-03  8.463E-03  3.991E-04\n',
               '-   1    4   23     1    23    3.5415E+01  8.8605E-03   '
               '3.5406E+01  0.000E+00  0.000E+00  0.000E+00  1.37520E+02  '
               '4.270E+00  9.079E+00  1.858E-03  8.463E-03  3.979E-04\n',
               '-   1    4   24     1    24    3.5406E+01  8.8585E-03   '
               '3.5397E+01  0.000E+00  0.000E+00  0.000E+00  1.37219E+02  '
               '4.269E+00  9.077E+00  1.857E-03  8.462E-03  3.966E-04\n',
               '-   1    4   25     1    25    3.5397E+01  8.8565E-03   '
               '3.5388E+01  0.000E+00  0.000E+00  0.000E+00  1.36919E+02  '
               '4.269E+00  9.075E+00  1.857E-03  8.461E-03  3.954E-04\n',
               '-   1    4   26     1    26    3.5388E+01  8.8544E-03   '
               '3.5379E+01  0.000E+00  0.000E+00  0.000E+00  1.36618E+02  '
               '4.268E+00  9.074E+00  1.857E-03  8.460E-03  3.942E-04\n',
               '-   1    4   27     1    27    3.5379E+01  8.8524E-03   '
               '3.5370E+01  0.000E+00  0.000E+00  0.000E+00  1.36318E+02  '
               '4.268E+00  9.072E+00  1.857E-03  8.459E-03  3.930E-04\n',
               '-   1    4   28     1    28    3.5370E+01  8.8504E-03   '
               '3.5361E+01  0.000E+00  0.000E+00  0.000E+00  1.36018E+02  '
               '4.268E+00  9.070E+00  1.856E-03  8.459E-03  3.918E-04\n',
               '-   1    4   29     1    29    3.5361E+01  8.8484E-03   '
               '3.5353E+01  0.000E+00  0.000E+00  0.000E+00  1.35717E+02  '
               '4.267E+00  9.069E+00  1.856E-03  8.458E-03  3.906E-04\n',
               '-   1    4   30     1    30    3.5353E+01  8.8464E-03   '
               '3.5344E+01  0.000E+00  0.000E+00  0.000E+00  1.35417E+02  '
               '4.267E+00  9.067E+00  1.856E-03  8.457E-03  3.895E-04\n',
               '-   1    4   31     1    31    3.5344E+01  8.8444E-03   '
               '3.5335E+01  0.000E+00  0.000E+00  0.000E+00  1.35116E+02  '
               '4.266E+00  9.065E+00  1.856E-03  8.456E-03  3.884E-04\n',
               '-   1    4   32     1    32    3.5335E+01  8.8424E-03   '
               '3.5326E+01  0.000E+00  0.000E+00  0.000E+00  1.34816E+02  '
               '4.266E+00  9.064E+00  1.855E-03  8.455E-03  3.873E-04\n',
               '-   1    4   33     1    33    3.5326E+01  8.8403E-03   '
               '3.5317E+01  0.000E+00  0.000E+00  0.000E+00  1.34516E+02  '
               '4.266E+00  9.062E+00  1.855E-03  8.454E-03  3.862E-04\n',
               '-   1    4   34     1    34    3.5317E+01  8.8383E-03   '
               '3.5308E+01  0.000E+00  0.000E+00  0.000E+00  1.34215E+02  '
               '4.265E+00  9.061E+00  1.855E-03  8.453E-03  3.851E-04\n',
               '-   1    4   35     1    35    3.5308E+01  8.8363E-03   '
               '3.5299E+01  0.000E+00  0.000E+00  0.000E+00  1.33915E+02  '
               '4.265E+00  9.059E+00  1.855E-03  8.452E-03  3.841E-04\n',
               '-   1    4   36     1    36    3.5299E+01  8.8343E-03   '
               '3.5291E+01  0.000E+00  0.000E+00  0.000E+00  1.33614E+02  '
               '4.264E+00  9.057E+00  1.854E-03  8.451E-03  3.832E-04\n',
               '-   1    4   37     1    37    3.5291E+01  8.8323E-03   '
               '3.5282E+01  0.000E+00  0.000E+00  0.000E+00  1.33314E+02  '
               '4.264E+00  9.056E+00  1.854E-03  8.450E-03  3.823E-04\n',
               '-   1    4   38     1    38    3.5282E+01  8.8303E-03   '
               '3.5273E+01  0.000E+00  0.000E+00  0.000E+00  1.33013E+02  '
               '4.263E+00  9.054E+00  1.854E-03  8.449E-03  3.815E-04\n',
               '-   1    4   39     1    39    3.5273E+01  8.8283E-03   '
               '3.5264E+01  0.000E+00  0.000E+00  0.000E+00  1.32713E+02  '
               '4.263E+00  9.052E+00  1.854E-03  8.448E-03  3.807E-04\n',
               '-   1    4   40     1    40    3.5264E+01  8.8263E-03   '
               '3.5255E+01  0.000E+00  0.000E+00  0.000E+00  1.32413E+02  '
               '4.263E+00  9.051E+00  1.853E-03  8.446E-03  3.800E-04\n',
               '-   1    4   41     1    41    3.5255E+01  8.8243E-03   '
               '3.5247E+01  0.000E+00  0.000E+00  0.000E+00  1.32112E+02  '
               '4.262E+00  9.049E+00  1.853E-03  8.445E-03  3.794E-04\n',
               '-   1    4   42     1    42    3.5247E+01  8.8223E-03   '
               '3.5238E+01  0.000E+00  0.000E+00  0.000E+00  1.31812E+02  '
               '4.262E+00  9.047E+00  1.853E-03  8.443E-03  3.789E-04\n',
               '-   1    4   43     1    43    3.5238E+01  8.8202E-03   '
               '3.5229E+01  0.000E+00  0.000E+00  0.000E+00  1.31511E+02  '
               '4.261E+00  9.046E+00  1.852E-03  8.442E-03  3.785E-04\n',
               '-   1    4   44     1    44    3.5229E+01  8.8182E-03   '
               '3.5220E+01  0.000E+00  0.000E+00  0.000E+00  1.31211E+02  '
               '4.261E+00  9.044E+00  1.852E-03  8.440E-03  3.783E-04\n',
               '-   1    4   45     1    45    3.5220E+01  8.8162E-03   '
               '3.5211E+01  0.000E+00  0.000E+00  0.000E+00  1.30911E+02  '
               '4.261E+00  9.042E+00  1.852E-03  8.438E-03  3.781E-04\n',
               '-   1    4   46     1    46    3.5211E+01  8.8142E-03   '
               '3.5202E+01  0.000E+00  0.000E+00  0.000E+00  1.30610E+02  '
               '4.260E+00  9.041E+00  1.852E-03  8.436E-03  3.781E-04\n',
               '-   1    4   47     1    47    3.5202E+01  8.8122E-03   '
               '3.5194E+01  0.000E+00  0.000E+00  0.000E+00  1.30310E+02  '
               '4.260E+00  9.039E+00  1.851E-03  8.434E-03  3.783E-04\n',
               '-   1    4   48     1    48    3.5194E+01  8.8102E-03   '
               '3.5185E+01  0.000E+00  0.000E+00  0.000E+00  1.30009E+02  '
               '4.259E+00  9.037E+00  1.851E-03  8.432E-03  3.786E-04\n',
               '-   1    4   49     1    49    3.5185E+01  8.8082E-03   '
               '3.5176E+01  0.000E+00  0.000E+00  0.000E+00  1.29709E+02  '
               '4.259E+00  9.036E+00  1.851E-03  8.429E-03  3.791E-04\n',
               '-   1    4   50     1    50    3.5176E+01  8.8062E-03   '
               '3.5167E+01  0.000E+00  0.000E+00  0.000E+00  1.29408E+02  '
               '4.258E+00  9.034E+00  1.851E-03  8.426E-03  3.798E-04\n',
               '-   1    4   51     1    51    3.5167E+01  8.8042E-03   '
               '3.5158E+01  0.000E+00  0.000E+00  0.000E+00  1.29108E+02  '
               '4.258E+00  9.032E+00  1.850E-03  8.423E-03  3.807E-04\n',
               '-   1    4   52     1    52    3.5158E+01  8.8022E-03   '
               '3.5150E+01  0.000E+00  0.000E+00  0.000E+00  1.28808E+02  '
               '4.258E+00  9.031E+00  1.850E-03  8.420E-03  3.819E-04\n',
               '-   1    4   53     1    53    3.5150E+01  8.8002E-03   '
               '3.5141E+01  0.000E+00  0.000E+00  0.000E+00  1.28507E+02  '
               '4.257E+00  9.029E+00  1.850E-03  8.417E-03  3.833E-04\n',
               '-   1    4   54     1    54    3.5141E+01  8.7982E-03   '
               '3.5132E+01  0.000E+00  0.000E+00  0.000E+00  1.28207E+02  '
               '4.257E+00  9.027E+00  1.850E-03  8.413E-03  3.849E-04\n',
               '-   1    4   55     1    55    3.5132E+01  8.7962E-03   '
               '3.5123E+01  0.000E+00  0.000E+00  0.000E+00  1.27906E+02  '
               '4.256E+00  9.026E+00  1.849E-03  8.409E-03  3.868E-04\n',
               '-   1    4   56     1    56    3.5123E+01  8.7942E-03   '
               '3.5114E+01  0.000E+00  0.000E+00  0.000E+00  1.27606E+02  '
               '4.256E+00  9.024E+00  1.849E-03  8.405E-03  3.890E-04\n',
               '-   1    4   57     1    57    3.5114E+01  8.7922E-03   '
               '3.5106E+01  0.000E+00  0.000E+00  0.000E+00  1.27306E+02  '
               '4.256E+00  9.022E+00  1.849E-03  8.401E-03  3.914E-04\n',
               '-   1    4   58     1    58    3.5106E+01  8.7901E-03   '
               '3.5097E+01  0.000E+00  0.000E+00  0.000E+00  1.27005E+02  '
               '4.255E+00  9.021E+00  1.849E-03  8.396E-03  3.941E-04\n',
               '-   1    4   59     1    59    3.5097E+01  8.7881E-03   '
               '3.5088E+01  0.000E+00  0.000E+00  0.000E+00  1.26705E+02  '
               '4.255E+00  9.019E+00  1.848E-03  8.391E-03  3.971E-04\n',
               '-   1    4   60     1    60    3.5088E+01  8.7861E-03   '
               '3.5079E+01  0.000E+00  0.000E+00  0.000E+00  1.26404E+02  '
               '4.254E+00  9.017E+00  1.848E-03  8.386E-03  4.004E-04\n',
               '-   1    4   61     1    61    3.5079E+01  8.7841E-03   '
               '3.5070E+01  0.000E+00  0.000E+00  0.000E+00  1.26104E+02  '
               '4.254E+00  9.016E+00  1.848E-03  8.380E-03  4.040E-04\n',
               '-   1    4   62     1    62    3.5070E+01  8.7821E-03   '
               '3.5062E+01  0.000E+00  0.000E+00  0.000E+00  1.25803E+02  '
               '4.253E+00  9.014E+00  1.848E-03  8.374E-03  4.079E-04\n',
               '-   1    4   63     1    63    3.5062E+01  8.7801E-03   '
               '3.5053E+01  0.000E+00  0.000E+00  0.000E+00  1.25503E+02  '
               '4.253E+00  9.012E+00  1.847E-03  8.368E-03  4.120E-04\n',
               '-   1    4   64     1    64    3.5053E+01  8.7781E-03   '
               '3.5044E+01  0.000E+00  0.000E+00  0.000E+00  1.25203E+02  '
               '4.253E+00  9.011E+00  1.847E-03  8.362E-03  4.164E-04\n',
               '-   1    4   65     1    65    3.5044E+01  8.7761E-03   '
               '3.5035E+01  0.000E+00  0.000E+00  0.000E+00  1.24902E+02  '
               '4.252E+00  9.009E+00  1.847E-03  8.355E-03  4.210E-04\n',
               '-   1    4   66     1    66    3.5035E+01  8.7741E-03   '
               '3.5027E+01  0.000E+00  0.000E+00  0.000E+00  1.24602E+02  '
               '4.252E+00  9.007E+00  1.847E-03  8.348E-03  4.259E-04\n',
               '-   1    4   67     1    67    3.5027E+01  8.7721E-03   '
               '3.5018E+01  0.000E+00  0.000E+00  0.000E+00  1.24301E+02  '
               '4.251E+00  9.006E+00  1.846E-03  8.341E-03  4.309E-04\n',
               '-   1    4   68     1    68    3.5018E+01  8.7701E-03   '
               '3.5009E+01  0.000E+00  0.000E+00  0.000E+00  1.24001E+02  '
               '4.251E+00  9.004E+00  1.846E-03  8.334E-03  4.361E-04\n',
               '-   1    4   69     1    69    3.5009E+01  8.7681E-03   '
               '3.5000E+01  0.000E+00  0.000E+00  0.000E+00  1.23701E+02  '
               '4.251E+00  9.002E+00  1.846E-03  8.327E-03  4.415E-04\n',
               '-   1    4   70     1    70    3.5000E+01  8.7661E-03   '
               '3.4991E+01  0.000E+00  0.000E+00  0.000E+00  1.23400E+02  '
               '4.250E+00  9.001E+00  1.845E-03  8.319E-03  4.469E-04\n',
               '-   1    4   71     1    71    3.4991E+01  8.7641E-03   '
               '3.4983E+01  0.000E+00  0.000E+00  0.000E+00  1.23100E+02  '
               '4.250E+00  8.999E+00  1.845E-03  8.312E-03  4.524E-04\n',
               '-   1    4   72     1    72    3.4983E+01  8.7621E-03   '
               '3.4974E+01  0.000E+00  0.000E+00  0.000E+00  1.22799E+02  '
               '4.249E+00  8.997E+00  1.845E-03  8.304E-03  4.579E-04\n',
               '-   1    4   73     1    73    3.4974E+01  8.7601E-03   '
               '3.4965E+01  0.000E+00  0.000E+00  0.000E+00  1.22499E+02  '
               '4.249E+00  8.996E+00  1.845E-03  8.297E-03  4.633E-04\n',
               '-   1    4   74     1    74    3.4965E+01  8.7581E-03   '
               '3.4956E+01  0.000E+00  0.000E+00  0.000E+00  1.22199E+02  '
               '4.249E+00  8.994E+00  1.844E-03  8.290E-03  4.686E-04\n',
               '-   1    4   75     1    75    3.4956E+01  8.7561E-03   '
               '3.4948E+01  0.000E+00  0.000E+00  0.000E+00  1.21898E+02  '
               '4.248E+00  8.992E+00  1.844E-03  8.282E-03  4.737E-04\n',
               '-   1    4   76     1    76    3.4948E+01  8.7541E-03   '
               '3.4939E+01  0.000E+00  0.000E+00  0.000E+00  1.21598E+02  '
               '4.248E+00  8.991E+00  1.844E-03  8.275E-03  4.787E-04\n',
               '-   1    4   77     1    77    3.4939E+01  8.7521E-03   '
               '3.4930E+01  0.000E+00  0.000E+00  0.000E+00  1.21297E+02  '
               '4.247E+00  8.989E+00  1.844E-03  8.269E-03  4.833E-04\n',
               '-   1    4   78     1    78    3.4930E+01  8.7501E-03   '
               '3.4921E+01  0.000E+00  0.000E+00  0.000E+00  1.20997E+02  '
               '4.247E+00  8.987E+00  1.843E-03  8.263E-03  4.875E-04\n',
               '-   1    4   79     1    79    3.4921E+01  8.7481E-03   '
               '3.4913E+01  0.000E+00  0.000E+00  0.000E+00  1.20696E+02  '
               '4.246E+00  8.986E+00  1.843E-03  8.257E-03  4.913E-04\n',
               '-   1    4   80     1    80    3.4913E+01  8.7461E-03   '
               '3.4904E+01  0.000E+00  0.000E+00  0.000E+00  1.20396E+02  '
               '4.246E+00  8.984E+00  1.843E-03  8.251E-03  4.947E-04\n',
               '-   1    4   81     1    81    3.4904E+01  8.7441E-03   '
               '3.4895E+01  0.000E+00  0.000E+00  0.000E+00  1.20096E+02  '
               '4.246E+00  8.982E+00  1.843E-03  8.247E-03  4.975E-04\n',
               '-   1    4   82     1    82    3.4895E+01  8.7421E-03   '
               '3.4886E+01  0.000E+00  0.000E+00  0.000E+00  1.19795E+02  '
               '4.245E+00  8.981E+00  1.842E-03  8.243E-03  4.996E-04\n',
               '-   1    4   83     1    83    3.4886E+01  8.7402E-03   '
               '3.4878E+01  0.000E+00  0.000E+00  0.000E+00  1.19495E+02  '
               '4.245E+00  8.979E+00  1.842E-03  8.239E-03  5.012E-04\n',
               '-   1    4   84     1    84    3.4878E+01  8.7382E-03   '
               '3.4869E+01  0.000E+00  0.000E+00  0.000E+00  1.19194E+02  '
               '4.244E+00  8.977E+00  1.842E-03  8.236E-03  5.020E-04\n',
               '-   1    4   85     1    85    3.4869E+01  8.7362E-03   '
               '3.4860E+01  0.000E+00  0.000E+00  0.000E+00  1.18894E+02  '
               '4.244E+00  8.976E+00  1.842E-03  8.234E-03  5.020E-04\n',
               '-   1    4   86     1    86    3.4860E+01  8.7342E-03   '
               '3.4851E+01  0.000E+00  0.000E+00  0.000E+00  1.18594E+02  '
               '4.244E+00  8.974E+00  1.841E-03  8.233E-03  5.013E-04\n',
               '-   1    4   87     1    87    3.4851E+01  8.7322E-03   '
               '3.4843E+01  0.000E+00  0.000E+00  0.000E+00  1.18293E+02  '
               '4.243E+00  8.972E+00  1.841E-03  8.232E-03  4.998E-04\n',
               '-   1    4   88     1    88    3.4843E+01  8.7302E-03   '
               '3.4834E+01  0.000E+00  0.000E+00  0.000E+00  1.17993E+02  '
               '4.243E+00  8.971E+00  1.841E-03  8.233E-03  4.976E-04\n',
               '-   1    4   89     1    89    3.4834E+01  8.7282E-03   '
               '3.4825E+01  0.000E+00  0.000E+00  0.000E+00  1.17692E+02  '
               '4.242E+00  8.969E+00  1.841E-03  8.234E-03  4.947E-04\n',
               '-   1    4   90     1    90    3.4825E+01  8.7262E-03   '
               '3.4817E+01  0.000E+00  0.000E+00  0.000E+00  1.17392E+02  '
               '4.242E+00  8.968E+00  1.840E-03  8.235E-03  4.911E-04\n',
               '-   1    4   91     1    91    3.4817E+01  8.7242E-03   '
               '3.4808E+01  0.000E+00  0.000E+00  0.000E+00  1.17091E+02  '
               '4.241E+00  8.966E+00  1.840E-03  8.237E-03  4.869E-04\n',
               '-   1    4   92     1    92    3.4808E+01  8.7222E-03   '
               '3.4799E+01  0.000E+00  0.000E+00  0.000E+00  1.16791E+02  '
               '4.241E+00  8.964E+00  1.840E-03  8.240E-03  4.823E-04\n',
               '-   1    4   93     1    93    3.4799E+01  8.7202E-03   '
               '3.4790E+01  0.000E+00  0.000E+00  0.000E+00  1.16491E+02  '
               '4.241E+00  8.963E+00  1.840E-03  8.243E-03  4.773E-04\n',
               '-   1    4   94     1    94    3.4790E+01  8.7182E-03   '
               '3.4782E+01  0.000E+00  0.000E+00  0.000E+00  1.16190E+02  '
               '4.240E+00  8.961E+00  1.839E-03  8.246E-03  4.721E-04\n',
               '-   1    4   95     1    95    3.4782E+01  8.7162E-03   '
               '3.4773E+01  0.000E+00  0.000E+00  0.000E+00  1.15890E+02  '
               '4.240E+00  8.959E+00  1.839E-03  8.249E-03  4.669E-04\n',
               '-   1    4   96     1    96    3.4773E+01  8.7142E-03   '
               '3.4764E+01  0.000E+00  0.000E+00  0.000E+00  1.15589E+02  '
               '4.239E+00  8.958E+00  1.839E-03  8.253E-03  4.617E-04\n',
               '-   1    4   97     1    97    3.4764E+01  8.7123E-03   '
               '3.4756E+01  0.000E+00  0.000E+00  0.000E+00  1.15289E+02  '
               '4.239E+00  8.956E+00  1.838E-03  8.256E-03  4.567E-04\n',
               '-   1    4   98     1    98    3.4756E+01  8.7103E-03   '
               '3.4747E+01  0.000E+00  0.000E+00  0.000E+00  1.14989E+02  '
               '4.239E+00  8.954E+00  1.838E-03  8.258E-03  4.519E-04\n',
               '-   1    4   99     1    99    3.4747E+01  8.7083E-03   '
               '3.4738E+01  0.000E+00  0.000E+00  0.000E+00  1.14688E+02  '
               '4.238E+00  8.953E+00  1.838E-03  8.261E-03  4.472E-04\n',
               '-   1    4  100     1   100    3.4738E+01  8.7063E-03   '
               '3.4729E+01  0.000E+00  0.000E+00  0.000E+00  1.14388E+02  '
               '4.238E+00  8.951E+00  1.838E-03  8.264E-03  4.425E-04\n',
               '-\n',
               '-\n',
               '-\n',
               '-1\n',
               '-  VOLUMETRIC BUDGET FOR UNSATURATED ZONE BENEATH STREAMS AT '
               'END OF TIME STEP    30 STRESS PERIOD   6\n',
               '-  '
               '------------------------------------------------------------------------------------------------\n',
               '-\n',
               '-    CUMULATIVE VOLUMES             L**3    RATES FOR THIS '
               'TIME STEP         L**3/T\n',
               '-    ------------------                     '
               '------------------------\n',
               '-\n',
               '-\n',
               '-          STREAM LOSS =      5573256.0000            STREAM '
               'LOSS =            0.8805\n',
               '-    CHANGE IN STORAGE =      1065588.8750      CHANGE IN '
               'STORAGE =        4.2354E-02\n',
               '-       RECHARGE TO GW =      4510585.5000         RECHARGE TO '
               'GW =            0.8382\n',
               '-\n',
               '-             TOTAL IN =      5573256.0000               TOTAL '
               'IN =            0.8805\n',
               '-\n',
               '-            TOTAL OUT =      5576174.5000              TOTAL '
               'OUT =            0.8805\n',
               '-\n',
               '-             IN - OUT =        -2918.5000               IN - '
               'OUT =       -5.9605E-08\n',
               '-\n',
               '-  PERCENT DISCREPANCY =           -0.01      PERCENT '
               'DISCREPANCY =            -0.00\n',
               '-\n',
               '-\n',
               '-\n',
               '-1\n',
               '-  VOLUMETRIC BUDGET FOR ENTIRE MODEL AT END OF TIME STEP   '
               '30, STRESS PERIOD   6\n',
               '-  '
               '------------------------------------------------------------------------------\n',
               '-\n',
               '-     CUMULATIVE VOLUMES      L**3       RATES FOR THIS TIME '
               'STEP      L**3/T\n',
               '-     ------------------                 '
               '------------------------\n',
               '-\n',
               '-           IN:                                      IN:\n',
               '-           ---                                      ---\n',
               '-             STORAGE =     7197899.5000               STORAGE '
               '=       3.6031E-02\n',
               '-       CONSTANT HEAD =           0.0000         CONSTANT HEAD '
               '=           0.0000\n',
               '-     HEAD DEP BOUNDS =           0.0000       HEAD DEP BOUNDS '
               '=           0.0000\n',
               '-      STREAM LEAKAGE =     4510592.0000        STREAM LEAKAGE '
               '=           0.8382\n',
               '-\n',
               '-            TOTAL IN =    11708492.0000              TOTAL IN '
               '=           0.8742\n',
               '-\n',
               '-          OUT:                                     OUT:\n',
               '-          ----                                     ----\n',
               '-             STORAGE =     2713044.7500               STORAGE '
               '=           0.5228\n',
               '-       CONSTANT HEAD =           0.0000         CONSTANT HEAD '
               '=           0.0000\n',
               '-     HEAD DEP BOUNDS =     8995442.0000       HEAD DEP BOUNDS '
               '=           0.3514\n',
               '-      STREAM LEAKAGE =           0.0000        STREAM LEAKAGE '
               '=           0.0000\n',
               '-\n',
               '-           TOTAL OUT =    11708487.0000             TOTAL OUT '
               '=           0.8742\n',
               '-\n',
               '-            IN - OUT =           5.0000              IN - OUT '
               '=       4.1485E-05\n',
               '-\n',
               '- PERCENT DISCREPANCY =           0.00     PERCENT DISCREPANCY '
               '=           0.00\n',
               '-\n',
               '-\n',
               '-\n',
               '-\n',
               '-\n',
               '-\n',
               '-         TIME SUMMARY AT END OF TIME STEP   30 IN STRESS '
               'PERIOD    6\n',
               '-                    SECONDS     MINUTES      HOURS       '
               'DAYS        YEARS\n',
               '-                    '
               '-----------------------------------------------------------\n',
               '-   TIME STEP LENGTH 2.49961E+05  4166.0      69.434      '
               '2.8931     7.92080E-03\n',
               '- STRESS PERIOD TIME 2.59200E+06  43200.      720.00      '
               '30.000     8.21355E-02\n',
               '-         TOTAL TIME 1.55520E+07 2.59200E+05  4320.0      '
               '180.00     0.49281    \n',
               '-1\n',
               '-1\n',
               '-                            STRESS PERIOD NO.    7, LENGTH '
               '=   2592000.    \n',
               '-                            '
               '-----------------------------------------------\n',
               '-\n',
               '-                              NUMBER OF TIME STEPS =    30\n',
               '-\n',
               '-                               MULTIPLIER FOR DELT =     '
               '1.100\n',
               '-\n',
               '-                            INITIAL TIME STEP SIZE =   '
               '15757.40    \n',
               '-\n',
               '- REUSING NON-PARAMETER GHB CELLS FROM LAST STRESS PERIOD\n',
               '-\n',
               '-      7 GHB CELLS\n',
               '- \n',
               '- SOLVING FOR HEAD \n',
               '-\n',
               '- NO OUTPUT CONTROL FOR STRESS PERIOD    7   TIME STEP    1\n',
               '- \n',
               '- SOLVING FOR HEAD \n',
               '-\n',
               '- NO OUTPUT CONTROL FOR STRESS PERIOD    7   TIME STEP    2\n',
               '- \n',
               '- SOLVING FOR HEAD \n',
               '-\n',
               '- NO OUTPUT CONTROL FOR STRESS PERIOD    7   TIME STEP    3\n',
               '- \n',
               '- SOLVING FOR HEAD \n',
               '-\n',
               '- NO OUTPUT CONTROL FOR STRESS PERIOD    7   TIME STEP    4\n',
               '- \n',
               '- SOLVING FOR HEAD \n',
               '-\n',
               '- NO OUTPUT CONTROL FOR STRESS PERIOD    7   TIME STEP    5\n',
               '- \n',
               '- SOLVING FOR HEAD \n',
               '-\n',
               '- NO OUTPUT CONTROL FOR STRESS PERIOD    7   TIME STEP    6\n',
               '- \n',
               '- SOLVING FOR HEAD \n',
               '-\n',
               '- NO OUTPUT CONTROL FOR STRESS PERIOD    7   TIME STEP    7\n',
               '- \n',
               '- SOLVING FOR HEAD \n',
               '-\n',
               '- NO OUTPUT CONTROL FOR STRESS PERIOD    7   TIME STEP    8\n',
               '- \n',
               '- SOLVING FOR HEAD \n',
               '-\n',
               '- NO OUTPUT CONTROL FOR STRESS PERIOD    7   TIME STEP    9\n',
               '- \n',
               '- SOLVING FOR HEAD \n',
               '-\n',
               '- NO OUTPUT CONTROL FOR STRESS PERIOD    7   TIME STEP   10\n',
               '- \n',
               '- SOLVING FOR HEAD \n',
               '-\n',
               '- NO OUTPUT CONTROL FOR STRESS PERIOD    7   TIME STEP   11\n',
               '- \n',
               '- SOLVING FOR HEAD \n',
               '-\n',
               '- NO OUTPUT CONTROL FOR STRESS PERIOD    7   TIME STEP   12\n',
               '- \n',
               '- SOLVING FOR HEAD \n',
               '-\n',
               '- NO OUTPUT CONTROL FOR STRESS PERIOD    7   TIME STEP   13\n',
               '- \n',
               '- SOLVING FOR HEAD \n',
               '-\n',
               '- NO OUTPUT CONTROL FOR STRESS PERIOD    7   TIME STEP   14\n',
               '- \n',
               '- SOLVING FOR HEAD \n',
               '-\n',
               '- NO OUTPUT CONTROL FOR STRESS PERIOD    7   TIME STEP   15\n',
               '- \n',
               '- SOLVING FOR HEAD \n',
               '-\n',
               '- NO OUTPUT CONTROL FOR STRESS PERIOD    7   TIME STEP   16\n',
               '- \n',
               '- SOLVING FOR HEAD \n',
               '-\n',
               '- NO OUTPUT CONTROL FOR STRESS PERIOD    7   TIME STEP   17\n',
               '- \n',
               '- SOLVING FOR HEAD \n',
               '-\n',
               '- NO OUTPUT CONTROL FOR STRESS PERIOD    7   TIME STEP   18\n',
               '- \n',
               '- SOLVING FOR HEAD \n',
               '-\n',
               '- NO OUTPUT CONTROL FOR STRESS PERIOD    7   TIME STEP   19\n',
               '- \n',
               '- SOLVING FOR HEAD \n',
               '-\n',
               '- NO OUTPUT CONTROL FOR STRESS PERIOD    7   TIME STEP   20\n',
               '- \n',
               '- SOLVING FOR HEAD \n',
               '-\n',
               '- NO OUTPUT CONTROL FOR STRESS PERIOD    7   TIME STEP   21\n',
               '- \n',
               '- SOLVING FOR HEAD \n',
               '-\n',
               '- NO OUTPUT CONTROL FOR STRESS PERIOD    7   TIME STEP   22\n',
               '- \n',
               '- SOLVING FOR HEAD \n',
               '-\n',
               '- NO OUTPUT CONTROL FOR STRESS PERIOD    7   TIME STEP   23\n',
               '- \n',
               '- SOLVING FOR HEAD \n',
               '-\n',
               '- NO OUTPUT CONTROL FOR STRESS PERIOD    7   TIME STEP   24\n',
               '- \n',
               '- SOLVING FOR HEAD \n',
               '-\n',
               '- NO OUTPUT CONTROL FOR STRESS PERIOD    7   TIME STEP   25\n',
               '- \n',
               '- SOLVING FOR HEAD \n',
               '-\n',
               '- NO OUTPUT CONTROL FOR STRESS PERIOD    7   TIME STEP   26\n',
               '- \n',
               '- SOLVING FOR HEAD \n',
               '-\n',
               '- NO OUTPUT CONTROL FOR STRESS PERIOD    7   TIME STEP   27\n',
               '- \n',
               '- SOLVING FOR HEAD \n',
               '-\n',
               '- NO OUTPUT CONTROL FOR STRESS PERIOD    7   TIME STEP   28\n',
               '- \n',
               '- SOLVING FOR HEAD \n',
               '-\n',
               '- NO OUTPUT CONTROL FOR STRESS PERIOD    7   TIME STEP   29\n',
               '- \n',
               '- SOLVING FOR HEAD \n',
               '-\n',
               '- NO OUTPUT CONTROL FOR STRESS PERIOD    7   TIME STEP   30\n',
               '-\n',
               '-\n',
               '-\n',
               '- STREAM LISTING     PERIOD      7   STEP       30\n',
               '-\n',
               '- LAYER ROW COL. STREAM  RCH.   FLOW INTO    STREAM     FLOW '
               'OUT OF   OVRLND.    DIRECT     STREAM      STREAM      '
               'STREAM     STREAM  STREAMBED   FLOW TO   CHNG. UNSAT. \n',
               '-                SEG.NO.  NO.   STRM. RCH.    LOSS       STRM. '
               'RCH.   RUNOFF     PRECIP       ET         HEAD        '
               'DEPTH      WIDTH  CONDCTNC.   WAT. TAB.\n',
               '-\n',
               '-   1    4    1     1     1    4.4070E+01  1.0650E-02   '
               '4.4059E+01  0.000E+00  0.000E+00  0.000E+00  1.44496E+02  '
               '4.646E+00  1.039E+01  2.070E-03  1.091E-02 -2.556E-04\n',
               '-   1    4    2     1     2    4.4059E+01  1.0649E-02   '
               '4.4049E+01  0.000E+00  0.000E+00  0.000E+00  1.44195E+02  '
               '4.645E+00  1.039E+01  2.070E-03  1.090E-02 -2.555E-04\n',
               '-   1    4    3     1     3    4.4049E+01  1.0647E-02   '
               '4.4038E+01  0.000E+00  0.000E+00  0.000E+00  1.43895E+02  '
               '4.645E+00  1.039E+01  2.069E-03  1.090E-02 -2.552E-04\n',
               '-   1    4    4     1     4    4.4038E+01  1.0645E-02   '
               '4.4028E+01  0.000E+00  0.000E+00  0.000E+00  1.43594E+02  '
               '4.644E+00  1.038E+01  2.069E-03  1.090E-02 -2.549E-04\n',
               '-   1    4    5     1     5    4.4028E+01  1.0643E-02   '
               '4.4017E+01  0.000E+00  0.000E+00  0.000E+00  1.43294E+02  '
               '4.644E+00  1.038E+01  2.069E-03  1.090E-02 -2.545E-04\n',
               '-   1    4    6     1     6    4.4017E+01  1.0641E-02   '
               '4.4006E+01  0.000E+00  0.000E+00  0.000E+00  1.42993E+02  '
               '4.643E+00  1.038E+01  2.069E-03  1.090E-02 -2.542E-04\n',
               '-   1    4    7     1     7    4.4006E+01  1.0639E-02   '
               '4.3996E+01  0.000E+00  0.000E+00  0.000E+00  1.42693E+02  '
               '4.643E+00  1.038E+01  2.069E-03  1.089E-02 -2.539E-04\n',
               '-   1    4    8     1     8    4.3996E+01  1.0637E-02   '
               '4.3985E+01  0.000E+00  0.000E+00  0.000E+00  1.42393E+02  '
               '4.643E+00  1.038E+01  2.068E-03  1.089E-02 -2.536E-04\n',
               '-   1    4    9     1     9    4.3985E+01  1.0635E-02   '
               '4.3974E+01  0.000E+00  0.000E+00  0.000E+00  1.42092E+02  '
               '4.642E+00  1.038E+01  2.068E-03  1.089E-02 -2.533E-04\n',
               '-   1    4   10     1    10    4.3974E+01  1.0633E-02   '
               '4.3964E+01  0.000E+00  0.000E+00  0.000E+00  1.41792E+02  '
               '4.642E+00  1.038E+01  2.068E-03  1.089E-02 -2.530E-04\n',
               '-   1    4   11     1    11    4.3964E+01  1.0631E-02   '
               '4.3953E+01  0.000E+00  0.000E+00  0.000E+00  1.41491E+02  '
               '4.641E+00  1.038E+01  2.068E-03  1.088E-02 -2.528E-04\n',
               '-   1    4   12     1    12    4.3953E+01  1.0629E-02   '
               '4.3942E+01  0.000E+00  0.000E+00  0.000E+00  1.41191E+02  '
               '4.641E+00  1.038E+01  2.068E-03  1.088E-02 -2.526E-04\n',
               '-   1    4   13     1    13    4.3942E+01  1.0627E-02   '
               '4.3932E+01  0.000E+00  0.000E+00  0.000E+00  1.40890E+02  '
               '4.640E+00  1.037E+01  2.067E-03  1.088E-02 -2.524E-04\n',
               '-   1    4   14     1    14    4.3932E+01  1.0626E-02   '
               '4.3921E+01  0.000E+00  0.000E+00  0.000E+00  1.40590E+02  '
               '4.640E+00  1.037E+01  2.067E-03  1.088E-02 -2.522E-04\n',
               '-   1    4   15     1    15    4.3921E+01  1.0624E-02   '
               '4.3911E+01  0.000E+00  0.000E+00  0.000E+00  1.40290E+02  '
               '4.640E+00  1.037E+01  2.067E-03  1.088E-02 -2.521E-04\n',
               '-   1    4   16     1    16    4.3911E+01  1.0622E-02   '
               '4.3900E+01  0.000E+00  0.000E+00  0.000E+00  1.39989E+02  '
               '4.639E+00  1.037E+01  2.067E-03  1.087E-02 -2.519E-04\n',
               '-   1    4   17     1    17    4.3900E+01  1.0620E-02   '
               '4.3889E+01  0.000E+00  0.000E+00  0.000E+00  1.39689E+02  '
               '4.639E+00  1.037E+01  2.067E-03  1.087E-02 -2.517E-04\n',
               '-   1    4   18     1    18    4.3889E+01  1.0618E-02   '
               '4.3879E+01  0.000E+00  0.000E+00  0.000E+00  1.39388E+02  '
               '4.638E+00  1.037E+01  2.066E-03  1.087E-02 -2.515E-04\n',
               '-   1    4   19     1    19    4.3879E+01  1.0616E-02   '
               '4.3868E+01  0.000E+00  0.000E+00  0.000E+00  1.39088E+02  '
               '4.638E+00  1.037E+01  2.066E-03  1.087E-02 -2.513E-04\n',
               '-   1    4   20     1    20    4.3868E+01  1.0614E-02   '
               '4.3857E+01  0.000E+00  0.000E+00  0.000E+00  1.38787E+02  '
               '4.637E+00  1.037E+01  2.066E-03  1.087E-02 -2.511E-04\n',
               '-   1    4   21     1    21    4.3857E+01  1.0612E-02   '
               '4.3847E+01  0.000E+00  0.000E+00  0.000E+00  1.38487E+02  '
               '4.637E+00  1.037E+01  2.066E-03  1.086E-02 -2.509E-04\n',
               '-   1    4   22     1    22    4.3847E+01  1.0610E-02   '
               '4.3836E+01  0.000E+00  0.000E+00  0.000E+00  1.38187E+02  '
               '4.637E+00  1.036E+01  2.066E-03  1.086E-02 -2.507E-04\n',
               '-   1    4   23     1    23    4.3836E+01  1.0608E-02   '
               '4.3826E+01  0.000E+00  0.000E+00  0.000E+00  1.37886E+02  '
               '4.636E+00  1.036E+01  2.065E-03  1.086E-02 -2.504E-04\n',
               '-   1    4   24     1    24    4.3826E+01  1.0606E-02   '
               '4.3815E+01  0.000E+00  0.000E+00  0.000E+00  1.37586E+02  '
               '4.636E+00  1.036E+01  2.065E-03  1.086E-02 -2.502E-04\n',
               '-   1    4   25     1    25    4.3815E+01  1.0604E-02   '
               '4.3804E+01  0.000E+00  0.000E+00  0.000E+00  1.37285E+02  '
               '4.635E+00  1.036E+01  2.065E-03  1.085E-02 -2.499E-04\n',
               '-   1    4   26     1    26    4.3804E+01  1.0603E-02   '
               '4.3794E+01  0.000E+00  0.000E+00  0.000E+00  1.36985E+02  '
               '4.635E+00  1.036E+01  2.065E-03  1.085E-02 -2.496E-04\n',
               '-   1    4   27     1    27    4.3794E+01  1.0601E-02   '
               '4.3783E+01  0.000E+00  0.000E+00  0.000E+00  1.36684E+02  '
               '4.634E+00  1.036E+01  2.065E-03  1.085E-02 -2.493E-04\n',
               '-   1    4   28     1    28    4.3783E+01  1.0599E-02   '
               '4.3773E+01  0.000E+00  0.000E+00  0.000E+00  1.36384E+02  '
               '4.634E+00  1.036E+01  2.064E-03  1.085E-02 -2.490E-04\n',
               '-   1    4   29     1    29    4.3773E+01  1.0597E-02   '
               '4.3762E+01  0.000E+00  0.000E+00  0.000E+00  1.36084E+02  '
               '4.634E+00  1.036E+01  2.064E-03  1.085E-02 -2.486E-04\n',
               '-   1    4   30     1    30    4.3762E+01  1.0595E-02   '
               '4.3751E+01  0.000E+00  0.000E+00  0.000E+00  1.35783E+02  '
               '4.633E+00  1.036E+01  2.064E-03  1.084E-02 -2.482E-04\n',
               '-   1    4   31     1    31    4.3751E+01  1.0593E-02   '
               '4.3741E+01  0.000E+00  0.000E+00  0.000E+00  1.35483E+02  '
               '4.633E+00  1.035E+01  2.064E-03  1.084E-02 -2.477E-04\n',
               '-   1    4   32     1    32    4.3741E+01  1.0591E-02   '
               '4.3730E+01  0.000E+00  0.000E+00  0.000E+00  1.35182E+02  '
               '4.632E+00  1.035E+01  2.064E-03  1.084E-02 -2.472E-04\n',
               '-   1    4   33     1    33    4.3730E+01  1.0589E-02   '
               '4.3720E+01  0.000E+00  0.000E+00  0.000E+00  1.34882E+02  '
               '4.632E+00  1.035E+01  2.063E-03  1.084E-02 -2.466E-04\n',
               '-   1    4   34     1    34    4.3720E+01  1.0587E-02   '
               '4.3709E+01  0.000E+00  0.000E+00  0.000E+00  1.34581E+02  '
               '4.631E+00  1.035E+01  2.063E-03  1.083E-02 -2.460E-04\n',
               '-   1    4   35     1    35    4.3709E+01  1.0585E-02   '
               '4.3699E+01  0.000E+00  0.000E+00  0.000E+00  1.34281E+02  '
               '4.631E+00  1.035E+01  2.063E-03  1.083E-02 -2.453E-04\n',
               '-   1    4   36     1    36    4.3699E+01  1.0583E-02   '
               '4.3688E+01  0.000E+00  0.000E+00  0.000E+00  1.33981E+02  '
               '4.631E+00  1.035E+01  2.063E-03  1.083E-02 -2.445E-04\n',
               '-   1    4   37     1    37    4.3688E+01  1.0582E-02   '
               '4.3677E+01  0.000E+00  0.000E+00  0.000E+00  1.33680E+02  '
               '4.630E+00  1.035E+01  2.063E-03  1.083E-02 -2.435E-04\n',
               '-   1    4   38     1    38    4.3677E+01  1.0580E-02   '
               '4.3667E+01  0.000E+00  0.000E+00  0.000E+00  1.33380E+02  '
               '4.630E+00  1.035E+01  2.062E-03  1.082E-02 -2.425E-04\n',
               '-   1    4   39     1    39    4.3667E+01  1.0578E-02   '
               '4.3656E+01  0.000E+00  0.000E+00  0.000E+00  1.33079E+02  '
               '4.629E+00  1.034E+01  2.062E-03  1.082E-02 -2.414E-04\n',
               '-   1    4   40     1    40    4.3656E+01  1.0576E-02   '
               '4.3646E+01  0.000E+00  0.000E+00  0.000E+00  1.32779E+02  '
               '4.629E+00  1.034E+01  2.062E-03  1.082E-02 -2.402E-04\n',
               '-   1    4   41     1    41    4.3646E+01  1.0574E-02   '
               '4.3635E+01  0.000E+00  0.000E+00  0.000E+00  1.32478E+02  '
               '4.628E+00  1.034E+01  2.062E-03  1.081E-02 -2.388E-04\n',
               '-   1    4   42     1    42    4.3635E+01  1.0572E-02   '
               '4.3624E+01  0.000E+00  0.000E+00  0.000E+00  1.32178E+02  '
               '4.628E+00  1.034E+01  2.062E-03  1.081E-02 -2.372E-04\n',
               '-   1    4   43     1    43    4.3624E+01  1.0570E-02   '
               '4.3614E+01  0.000E+00  0.000E+00  0.000E+00  1.31878E+02  '
               '4.628E+00  1.034E+01  2.061E-03  1.081E-02 -2.355E-04\n',
               '-   1    4   44     1    44    4.3614E+01  1.0568E-02   '
               '4.3603E+01  0.000E+00  0.000E+00  0.000E+00  1.31577E+02  '
               '4.627E+00  1.034E+01  2.061E-03  1.080E-02 -2.337E-04\n',
               '-   1    4   45     1    45    4.3603E+01  1.0566E-02   '
               '4.3593E+01  0.000E+00  0.000E+00  0.000E+00  1.31277E+02  '
               '4.627E+00  1.034E+01  2.061E-03  1.080E-02 -2.316E-04\n',
               '-   1    4   46     1    46    4.3593E+01  1.0564E-02   '
               '4.3582E+01  0.000E+00  0.000E+00  0.000E+00  1.30976E+02  '
               '4.626E+00  1.034E+01  2.061E-03  1.079E-02 -2.293E-04\n',
               '-   1    4   47     1    47    4.3582E+01  1.0562E-02   '
               '4.3572E+01  0.000E+00  0.000E+00  0.000E+00  1.30676E+02  '
               '4.626E+00  1.034E+01  2.061E-03  1.079E-02 -2.268E-04\n',
               '-   1    4   48     1    48    4.3572E+01  1.0560E-02   '
               '4.3561E+01  0.000E+00  0.000E+00  0.000E+00  1.30375E+02  '
               '4.625E+00  1.033E+01  2.060E-03  1.078E-02 -2.241E-04\n',
               '-   1    4   49     1    49    4.3561E+01  1.0559E-02   '
               '4.3551E+01  0.000E+00  0.000E+00  0.000E+00  1.30075E+02  '
               '4.625E+00  1.033E+01  2.060E-03  1.078E-02 -2.212E-04\n',
               '-   1    4   50     1    50    4.3551E+01  1.0557E-02   '
               '4.3540E+01  0.000E+00  0.000E+00  0.000E+00  1.29775E+02  '
               '4.625E+00  1.033E+01  2.060E-03  1.077E-02 -2.180E-04\n',
               '-   1    4   51     1    51    4.3540E+01  1.0555E-02   '
               '4.3529E+01  0.000E+00  0.000E+00  0.000E+00  1.29474E+02  '
               '4.624E+00  1.033E+01  2.060E-03  1.077E-02 -2.145E-04\n',
               '-   1    4   52     1    52    4.3529E+01  1.0553E-02   '
               '4.3519E+01  0.000E+00  0.000E+00  0.000E+00  1.29174E+02  '
               '4.624E+00  1.033E+01  2.060E-03  1.076E-02 -2.108E-04\n',
               '-   1    4   53     1    53    4.3519E+01  1.0551E-02   '
               '4.3508E+01  0.000E+00  0.000E+00  0.000E+00  1.28873E+02  '
               '4.623E+00  1.033E+01  2.059E-03  1.076E-02 -2.068E-04\n',
               '-   1    4   54     1    54    4.3508E+01  1.0549E-02   '
               '4.3498E+01  0.000E+00  0.000E+00  0.000E+00  1.28573E+02  '
               '4.623E+00  1.033E+01  2.059E-03  1.075E-02 -2.025E-04\n',
               '-   1    4   55     1    55    4.3498E+01  1.0547E-02   '
               '4.3487E+01  0.000E+00  0.000E+00  0.000E+00  1.28272E+02  '
               '4.622E+00  1.033E+01  2.059E-03  1.074E-02 -1.979E-04\n',
               '-   1    4   56     1    56    4.3487E+01  1.0545E-02   '
               '4.3477E+01  0.000E+00  0.000E+00  0.000E+00  1.27972E+02  '
               '4.622E+00  1.033E+01  2.059E-03  1.074E-02 -1.930E-04\n',
               '-   1    4   57     1    57    4.3477E+01  1.0543E-02   '
               '4.3466E+01  0.000E+00  0.000E+00  0.000E+00  1.27672E+02  '
               '4.622E+00  1.032E+01  2.059E-03  1.073E-02 -1.878E-04\n',
               '-   1    4   58     1    58    4.3466E+01  1.0541E-02   '
               '4.3456E+01  0.000E+00  0.000E+00  0.000E+00  1.27371E+02  '
               '4.621E+00  1.032E+01  2.058E-03  1.072E-02 -1.823E-04\n',
               '-   1    4   59     1    59    4.3456E+01  1.0539E-02   '
               '4.3445E+01  0.000E+00  0.000E+00  0.000E+00  1.27071E+02  '
               '4.621E+00  1.032E+01  2.058E-03  1.072E-02 -1.766E-04\n',
               '-   1    4   60     1    60    4.3445E+01  1.0538E-02   '
               '4.3435E+01  0.000E+00  0.000E+00  0.000E+00  1.26770E+02  '
               '4.620E+00  1.032E+01  2.058E-03  1.071E-02 -1.705E-04\n',
               '-   1    4   61     1    61    4.3435E+01  1.0536E-02   '
               '4.3424E+01  0.000E+00  0.000E+00  0.000E+00  1.26470E+02  '
               '4.620E+00  1.032E+01  2.058E-03  1.070E-02 -1.642E-04\n',
               '-   1    4   62     1    62    4.3424E+01  1.0534E-02   '
               '4.3413E+01  0.000E+00  0.000E+00  0.000E+00  1.26169E+02  '
               '4.619E+00  1.032E+01  2.058E-03  1.069E-02 -1.577E-04\n',
               '-   1    4   63     1    63    4.3413E+01  1.0532E-02   '
               '4.3403E+01  0.000E+00  0.000E+00  0.000E+00  1.25869E+02  '
               '4.619E+00  1.032E+01  2.057E-03  1.068E-02 -1.509E-04\n',
               '-   1    4   64     1    64    4.3403E+01  1.0530E-02   '
               '4.3392E+01  0.000E+00  0.000E+00  0.000E+00  1.25569E+02  '
               '4.619E+00  1.032E+01  2.057E-03  1.067E-02 -1.439E-04\n',
               '-   1    4   65     1    65    4.3392E+01  1.0528E-02   '
               '4.3382E+01  0.000E+00  0.000E+00  0.000E+00  1.25268E+02  '
               '4.618E+00  1.032E+01  2.057E-03  1.066E-02 -1.367E-04\n',
               '-   1    4   66     1    66    4.3382E+01  1.0526E-02   '
               '4.3371E+01  0.000E+00  0.000E+00  0.000E+00  1.24968E+02  '
               '4.618E+00  1.031E+01  2.057E-03  1.066E-02 -1.293E-04\n',
               '-   1    4   67     1    67    4.3371E+01  1.0524E-02   '
               '4.3361E+01  0.000E+00  0.000E+00  0.000E+00  1.24667E+02  '
               '4.617E+00  1.031E+01  2.057E-03  1.065E-02 -1.219E-04\n',
               '-   1    4   68     1    68    4.3361E+01  1.0522E-02   '
               '4.3350E+01  0.000E+00  0.000E+00  0.000E+00  1.24367E+02  '
               '4.617E+00  1.031E+01  2.056E-03  1.064E-02 -1.143E-04\n',
               '-   1    4   69     1    69    4.3350E+01  1.0520E-02   '
               '4.3340E+01  0.000E+00  0.000E+00  0.000E+00  1.24066E+02  '
               '4.616E+00  1.031E+01  2.056E-03  1.063E-02 -1.067E-04\n',
               '-   1    4   70     1    70    4.3340E+01  1.0519E-02   '
               '4.3329E+01  0.000E+00  0.000E+00  0.000E+00  1.23766E+02  '
               '4.616E+00  1.031E+01  2.056E-03  1.062E-02 -9.911E-05\n',
               '-   1    4   71     1    71    4.3329E+01  1.0517E-02   '
               '4.3319E+01  0.000E+00  0.000E+00  0.000E+00  1.23466E+02  '
               '4.616E+00  1.031E+01  2.056E-03  1.061E-02 -9.154E-05\n',
               '-   1    4   72     1    72    4.3319E+01  1.0515E-02   '
               '4.3308E+01  0.000E+00  0.000E+00  0.000E+00  1.23165E+02  '
               '4.615E+00  1.031E+01  2.056E-03  1.060E-02 -8.407E-05\n',
               '-   1    4   73     1    73    4.3308E+01  1.0513E-02   '
               '4.3298E+01  0.000E+00  0.000E+00  0.000E+00  1.22865E+02  '
               '4.615E+00  1.031E+01  2.055E-03  1.059E-02 -7.674E-05\n',
               '-   1    4   74     1    74    4.3298E+01  1.0511E-02   '
               '4.3287E+01  0.000E+00  0.000E+00  0.000E+00  1.22564E+02  '
               '4.614E+00  1.030E+01  2.055E-03  1.058E-02 -6.960E-05\n',
               '-   1    4   75     1    75    4.3287E+01  1.0509E-02   '
               '4.3277E+01  0.000E+00  0.000E+00  0.000E+00  1.22264E+02  '
               '4.614E+00  1.030E+01  2.055E-03  1.057E-02 -6.269E-05\n',
               '-   1    4   76     1    76    4.3277E+01  1.0507E-02   '
               '4.3266E+01  0.000E+00  0.000E+00  0.000E+00  1.21963E+02  '
               '4.613E+00  1.030E+01  2.055E-03  1.056E-02 -5.609E-05\n',
               '-   1    4   77     1    77    4.3266E+01  1.0505E-02   '
               '4.3256E+01  0.000E+00  0.000E+00  0.000E+00  1.21663E+02  '
               '4.613E+00  1.030E+01  2.055E-03  1.056E-02 -4.983E-05\n',
               '-   1    4   78     1    78    4.3256E+01  1.0503E-02   '
               '4.3245E+01  0.000E+00  0.000E+00  0.000E+00  1.21363E+02  '
               '4.613E+00  1.030E+01  2.054E-03  1.055E-02 -4.397E-05\n',
               '-   1    4   79     1    79    4.3245E+01  1.0501E-02   '
               '4.3235E+01  0.000E+00  0.000E+00  0.000E+00  1.21062E+02  '
               '4.612E+00  1.030E+01  2.054E-03  1.054E-02 -3.854E-05\n',
               '-   1    4   80     1    80    4.3235E+01  1.0500E-02   '
               '4.3224E+01  0.000E+00  0.000E+00  0.000E+00  1.20762E+02  '
               '4.612E+00  1.030E+01  2.054E-03  1.053E-02 -3.359E-05\n',
               '-   1    4   81     1    81    4.3224E+01  1.0498E-02   '
               '4.3214E+01  0.000E+00  0.000E+00  0.000E+00  1.20461E+02  '
               '4.611E+00  1.030E+01  2.054E-03  1.053E-02 -2.916E-05\n',
               '-   1    4   82     1    82    4.3214E+01  1.0496E-02   '
               '4.3203E+01  0.000E+00  0.000E+00  0.000E+00  1.20161E+02  '
               '4.611E+00  1.030E+01  2.054E-03  1.052E-02 -2.528E-05\n',
               '-   1    4   83     1    83    4.3203E+01  1.0494E-02   '
               '4.3193E+01  0.000E+00  0.000E+00  0.000E+00  1.19860E+02  '
               '4.610E+00  1.029E+01  2.053E-03  1.052E-02 -2.197E-05\n',
               '-   1    4   84     1    84    4.3193E+01  1.0492E-02   '
               '4.3182E+01  0.000E+00  0.000E+00  0.000E+00  1.19560E+02  '
               '4.610E+00  1.029E+01  2.053E-03  1.051E-02 -1.926E-05\n',
               '-   1    4   85     1    85    4.3182E+01  1.0490E-02   '
               '4.3172E+01  0.000E+00  0.000E+00  0.000E+00  1.19260E+02  '
               '4.610E+00  1.029E+01  2.053E-03  1.051E-02 -1.714E-05\n',
               '-   1    4   86     1    86    4.3172E+01  1.0488E-02   '
               '4.3161E+01  0.000E+00  0.000E+00  0.000E+00  1.18959E+02  '
               '4.609E+00  1.029E+01  2.053E-03  1.050E-02 -1.562E-05\n',
               '-   1    4   87     1    87    4.3161E+01  1.0486E-02   '
               '4.3151E+01  0.000E+00  0.000E+00  0.000E+00  1.18659E+02  '
               '4.609E+00  1.029E+01  2.053E-03  1.050E-02 -1.468E-05\n',
               '-   1    4   88     1    88    4.3151E+01  1.0484E-02   '
               '4.3140E+01  0.000E+00  0.000E+00  0.000E+00  1.18358E+02  '
               '4.608E+00  1.029E+01  2.052E-03  1.050E-02 -1.428E-05\n',
               '-   1    4   89     1    89    4.3140E+01  1.0482E-02   '
               '4.3130E+01  0.000E+00  0.000E+00  0.000E+00  1.18058E+02  '
               '4.608E+00  1.029E+01  2.052E-03  1.050E-02 -1.439E-05\n',
               '-   1    4   90     1    90    4.3130E+01  1.0480E-02   '
               '4.3119E+01  0.000E+00  0.000E+00  0.000E+00  1.17757E+02  '
               '4.607E+00  1.029E+01  2.052E-03  1.050E-02 -1.495E-05\n',
               '-   1    4   91     1    91    4.3119E+01  1.0479E-02   '
               '4.3109E+01  0.000E+00  0.000E+00  0.000E+00  1.17457E+02  '
               '4.607E+00  1.029E+01  2.052E-03  1.049E-02 -1.587E-05\n',
               '-   1    4   92     1    92    4.3109E+01  1.0477E-02   '
               '4.3098E+01  0.000E+00  0.000E+00  0.000E+00  1.17157E+02  '
               '4.607E+00  1.028E+01  2.052E-03  1.049E-02 -1.705E-05\n',
               '-   1    4   93     1    93    4.3098E+01  1.0475E-02   '
               '4.3088E+01  0.000E+00  0.000E+00  0.000E+00  1.16856E+02  '
               '4.606E+00  1.028E+01  2.051E-03  1.049E-02 -1.836E-05\n',
               '-   1    4   94     1    94    4.3088E+01  1.0473E-02   '
               '4.3077E+01  0.000E+00  0.000E+00  0.000E+00  1.16556E+02  '
               '4.606E+00  1.028E+01  2.051E-03  1.049E-02 -1.959E-05\n',
               '-   1    4   95     1    95    4.3077E+01  1.0471E-02   '
               '4.3067E+01  0.000E+00  0.000E+00  0.000E+00  1.16255E+02  '
               '4.605E+00  1.028E+01  2.051E-03  1.049E-02 -2.047E-05\n',
               '-   1    4   96     1    96    4.3067E+01  1.0469E-02   '
               '4.3056E+01  0.000E+00  0.000E+00  0.000E+00  1.15955E+02  '
               '4.605E+00  1.028E+01  2.051E-03  1.049E-02 -2.062E-05\n',
               '-   1    4   97     1    97    4.3056E+01  1.0467E-02   '
               '4.3046E+01  0.000E+00  0.000E+00  0.000E+00  1.15654E+02  '
               '4.604E+00  1.028E+01  2.051E-03  1.049E-02 -1.946E-05\n',
               '-   1    4   98     1    98    4.3046E+01  1.0465E-02   '
               '4.3036E+01  0.000E+00  0.000E+00  0.000E+00  1.15354E+02  '
               '4.604E+00  1.028E+01  2.050E-03  1.048E-02 -1.628E-05\n',
               '-   1    4   99     1    99    4.3036E+01  1.0463E-02   '
               '4.3025E+01  0.000E+00  0.000E+00  0.000E+00  1.15054E+02  '
               '4.604E+00  1.028E+01  2.050E-03  1.047E-02 -1.030E-05\n',
               '-   1    4  100     1   100    4.3025E+01  1.0462E-02   '
               '4.3015E+01  0.000E+00  0.000E+00  0.000E+00  1.14753E+02  '
               '4.603E+00  1.028E+01  2.050E-03  0.000E+00  0.000E+00\n',
               '-\n',
               '-\n',
               '-\n',
               '-1\n',
               '-  VOLUMETRIC BUDGET FOR UNSATURATED ZONE BENEATH STREAMS AT '
               'END OF TIME STEP    30 STRESS PERIOD   7\n',
               '-  '
               '------------------------------------------------------------------------------------------------\n',
               '-\n',
               '-    CUMULATIVE VOLUMES             L**3    RATES FOR THIS '
               'TIME STEP         L**3/T\n',
               '-    ------------------                     '
               '------------------------\n',
               '-\n',
               '-\n',
               '-          STREAM LOSS =      8309310.5000            STREAM '
               'LOSS =            1.0556\n',
               '-    CHANGE IN STORAGE =      1218347.5000      CHANGE IN '
               'STORAGE =       -1.6520E-02\n',
               '-       RECHARGE TO GW =      7093894.5000         RECHARGE TO '
               'GW =            1.0721\n',
               '-\n',
               '-             TOTAL IN =      8309310.5000               TOTAL '
               'IN =            1.0721\n',
               '-\n',
               '-            TOTAL OUT =      8312242.0000              TOTAL '
               'OUT =            1.0721\n',
               '-\n',
               '-             IN - OUT =        -2931.5000               IN - '
               'OUT =            0.0000\n',
               '-\n',
               '-  PERCENT DISCREPANCY =           -0.01      PERCENT '
               'DISCREPANCY =             0.00\n',
               '-\n',
               '-\n',
               '-\n',
               '-1\n',
               '-  VOLUMETRIC BUDGET FOR ENTIRE MODEL AT END OF TIME STEP   '
               '30, STRESS PERIOD   7\n',
               '-  '
               '------------------------------------------------------------------------------\n',
               '-\n',
               '-     CUMULATIVE VOLUMES      L**3       RATES FOR THIS TIME '
               'STEP      L**3/T\n',
               '-     ------------------                 '
               '------------------------\n',
               '-\n',
               '-           IN:                                      IN:\n',
               '-           ---                                      ---\n',
               '-             STORAGE =     7220275.5000               STORAGE '
               '=           0.0000\n',
               '-       CONSTANT HEAD =           0.0000         CONSTANT HEAD '
               '=           0.0000\n',
               '-     HEAD DEP BOUNDS =           0.0000       HEAD DEP BOUNDS '
               '=           0.0000\n',
               '-      STREAM LEAKAGE =     7093898.0000        STREAM LEAKAGE '
               '=           1.0721\n',
               '-\n',
               '-            TOTAL IN =    14314174.0000              TOTAL IN '
               '=           1.0721\n',
               '-\n',
               '-          OUT:                                     OUT:\n',
               '-          ----                                     ----\n',
               '-             STORAGE =     4405740.5000               STORAGE '
               '=           0.7159\n',
               '-       CONSTANT HEAD =           0.0000         CONSTANT HEAD '
               '=           0.0000\n',
               '-     HEAD DEP BOUNDS =     9908436.0000       HEAD DEP BOUNDS '
               '=           0.3562\n',
               '-      STREAM LEAKAGE =           0.0000        STREAM LEAKAGE '
               '=           0.0000\n',
               '-\n',
               '-           TOTAL OUT =    14314176.0000             TOTAL OUT '
               '=           1.0721\n',
               '-\n',
               '-            IN - OUT =          -2.0000              IN - OUT '
               '=       4.8637E-05\n',
               '-\n',
               '- PERCENT DISCREPANCY =          -0.00     PERCENT DISCREPANCY '
               '=           0.00\n',
               '-\n',
               '-\n',
               '-\n',
               '-\n',
               '-\n',
               '-\n',
               '-         TIME SUMMARY AT END OF TIME STEP   30 IN STRESS '
               'PERIOD    7\n',
               '-                    SECONDS     MINUTES      HOURS       '
               'DAYS        YEARS\n',
               '-                    '
               '-----------------------------------------------------------\n',
               '-   TIME STEP LENGTH 2.49961E+05  4166.0      69.434      '
               '2.8931     7.92080E-03\n',
               '- STRESS PERIOD TIME 2.59200E+06  43200.      720.00      '
               '30.000     8.21355E-02\n',
               '-         TOTAL TIME 1.81440E+07 3.02400E+05  5040.0      '
               '210.00     0.57495    \n',
               '-1\n',
               '-1\n',
               '-                            STRESS PERIOD NO.    8, LENGTH '
               '=   2592000.    \n',
               '-                            '
               '-----------------------------------------------\n',
               '-\n',
               '-                              NUMBER OF TIME STEPS =    30\n',
               '-\n',
               '-                               MULTIPLIER FOR DELT =     '
               '1.100\n',
               '-\n',
               '-                            INITIAL TIME STEP SIZE =   '
               '15757.40    \n',
               '-\n',
               '- REUSING NON-PARAMETER GHB CELLS FROM LAST STRESS PERIOD\n',
               '-\n',
               '-      7 GHB CELLS\n',
               '- \n',
               '- SOLVING FOR HEAD \n',
               '-\n',
               '- NO OUTPUT CONTROL FOR STRESS PERIOD    8   TIME STEP    1\n',
               '- \n',
               '- SOLVING FOR HEAD \n',
               '-\n',
               '- NO OUTPUT CONTROL FOR STRESS PERIOD    8   TIME STEP    2\n',
               '- \n',
               '- SOLVING FOR HEAD \n',
               '-\n',
               '- NO OUTPUT CONTROL FOR STRESS PERIOD    8   TIME STEP    3\n',
               '- \n',
               '- SOLVING FOR HEAD \n',
               '-\n',
               '- NO OUTPUT CONTROL FOR STRESS PERIOD    8   TIME STEP    4\n',
               '- \n',
               '- SOLVING FOR HEAD \n',
               '-\n',
               '- NO OUTPUT CONTROL FOR STRESS PERIOD    8   TIME STEP    5\n',
               '- \n',
               '- SOLVING FOR HEAD \n',
               '-\n',
               '- NO OUTPUT CONTROL FOR STRESS PERIOD    8   TIME STEP    6\n',
               '- \n',
               '- SOLVING FOR HEAD \n',
               '-\n',
               '- NO OUTPUT CONTROL FOR STRESS PERIOD    8   TIME STEP    7\n',
               '- \n',
               '- SOLVING FOR HEAD \n',
               '-\n',
               '- NO OUTPUT CONTROL FOR STRESS PERIOD    8   TIME STEP    8\n',
               '- \n',
               '- SOLVING FOR HEAD \n',
               '-\n',
               '- NO OUTPUT CONTROL FOR STRESS PERIOD    8   TIME STEP    9\n',
               '- \n',
               '- SOLVING FOR HEAD \n',
               '-\n',
               '- NO OUTPUT CONTROL FOR STRESS PERIOD    8   TIME STEP   10\n',
               '- \n',
               '- SOLVING FOR HEAD \n',
               '-\n',
               '- NO OUTPUT CONTROL FOR STRESS PERIOD    8   TIME STEP   11\n',
               '- \n',
               '- SOLVING FOR HEAD \n',
               '-\n',
               '- NO OUTPUT CONTROL FOR STRESS PERIOD    8   TIME STEP   12\n',
               '- \n',
               '- SOLVING FOR HEAD \n',
               '-\n',
               '- NO OUTPUT CONTROL FOR STRESS PERIOD    8   TIME STEP   13\n',
               '- \n',
               '- SOLVING FOR HEAD \n',
               '-\n',
               '- NO OUTPUT CONTROL FOR STRESS PERIOD    8   TIME STEP   14\n',
               '- \n',
               '- SOLVING FOR HEAD \n',
               '-\n',
               '- NO OUTPUT CONTROL FOR STRESS PERIOD    8   TIME STEP   15\n',
               '- \n',
               '- SOLVING FOR HEAD \n',
               '-\n',
               '- NO OUTPUT CONTROL FOR STRESS PERIOD    8   TIME STEP   16\n',
               '- \n',
               '- SOLVING FOR HEAD \n',
               '-\n',
               '- NO OUTPUT CONTROL FOR STRESS PERIOD    8   TIME STEP   17\n',
               '- \n',
               '- SOLVING FOR HEAD \n',
               '-\n',
               '- NO OUTPUT CONTROL FOR STRESS PERIOD    8   TIME STEP   18\n',
               '- \n',
               '- SOLVING FOR HEAD \n',
               '-\n',
               '- NO OUTPUT CONTROL FOR STRESS PERIOD    8   TIME STEP   19\n',
               '- \n',
               '- SOLVING FOR HEAD \n',
               '-\n',
               '- NO OUTPUT CONTROL FOR STRESS PERIOD    8   TIME STEP   20\n',
               '- \n',
               '- SOLVING FOR HEAD \n',
               '-\n',
               '- NO OUTPUT CONTROL FOR STRESS PERIOD    8   TIME STEP   21\n',
               '- \n',
               '- SOLVING FOR HEAD \n',
               '-\n',
               '- NO OUTPUT CONTROL FOR STRESS PERIOD    8   TIME STEP   22\n',
               '- \n',
               '- SOLVING FOR HEAD \n',
               '-\n',
               '- NO OUTPUT CONTROL FOR STRESS PERIOD    8   TIME STEP   23\n',
               '- \n',
               '- SOLVING FOR HEAD \n',
               '-\n',
               '- NO OUTPUT CONTROL FOR STRESS PERIOD    8   TIME STEP   24\n',
               '- \n',
               '- SOLVING FOR HEAD \n',
               '-\n',
               '- NO OUTPUT CONTROL FOR STRESS PERIOD    8   TIME STEP   25\n',
               '- \n',
               '- SOLVING FOR HEAD \n',
               '-\n',
               '- NO OUTPUT CONTROL FOR STRESS PERIOD    8   TIME STEP   26\n',
               '- \n',
               '- SOLVING FOR HEAD \n',
               '-\n',
               '- NO OUTPUT CONTROL FOR STRESS PERIOD    8   TIME STEP   27\n',
               '- \n',
               '- SOLVING FOR HEAD \n',
               '-\n',
               '- NO OUTPUT CONTROL FOR STRESS PERIOD    8   TIME STEP   28\n',
               '- \n',
               '- SOLVING FOR HEAD \n',
               '-\n',
               '- NO OUTPUT CONTROL FOR STRESS PERIOD    8   TIME STEP   29\n',
               '- \n',
               '- SOLVING FOR HEAD \n',
               '-\n',
               '- NO OUTPUT CONTROL FOR STRESS PERIOD    8   TIME STEP   30\n',
               '-\n',
               '-\n',
               '-\n',
               '- STREAM LISTING     PERIOD      8   STEP       30\n',
               '-\n',
               '- LAYER ROW COL. STREAM  RCH.   FLOW INTO    STREAM     FLOW '
               'OUT OF   OVRLND.    DIRECT     STREAM      STREAM      '
               'STREAM     STREAM  STREAMBED   FLOW TO   CHNG. UNSAT. \n',
               '-                SEG.NO.  NO.   STRM. RCH.    LOSS       STRM. '
               'RCH.   RUNOFF     PRECIP       ET         HEAD        '
               'DEPTH      WIDTH  CONDCTNC.   WAT. TAB.\n',
               '-\n',
               '-   1    4    1     1     1    3.3910E+01  8.5173E-03   '
               '3.3902E+01  0.000E+00  0.000E+00  0.000E+00  1.44048E+02  '
               '4.198E+00  8.792E+00  1.813E-03  8.697E-03 -1.801E-04\n',
               '-   1    4    2     1     2    3.3902E+01  8.5154E-03   '
               '3.3893E+01  0.000E+00  0.000E+00  0.000E+00  1.43748E+02  '
               '4.198E+00  8.790E+00  1.813E-03  8.695E-03 -1.801E-04\n',
               '-   1    4    3     1     3    3.3893E+01  8.5134E-03   '
               '3.3885E+01  0.000E+00  0.000E+00  0.000E+00  1.43447E+02  '
               '4.197E+00  8.789E+00  1.812E-03  8.693E-03 -1.801E-04\n',
               '-   1    4    4     1     4    3.3885E+01  8.5114E-03   '
               '3.3876E+01  0.000E+00  0.000E+00  0.000E+00  1.43147E+02  '
               '4.197E+00  8.787E+00  1.812E-03  8.692E-03 -1.801E-04\n',
               '-   1    4    5     1     5    3.3876E+01  8.5095E-03   '
               '3.3868E+01  0.000E+00  0.000E+00  0.000E+00  1.42846E+02  '
               '4.196E+00  8.786E+00  1.812E-03  8.690E-03 -1.800E-04\n',
               '-   1    4    6     1     6    3.3868E+01  8.5075E-03   '
               '3.3859E+01  0.000E+00  0.000E+00  0.000E+00  1.42546E+02  '
               '4.196E+00  8.784E+00  1.812E-03  8.687E-03 -1.800E-04\n',
               '-   1    4    7     1     7    3.3859E+01  8.5056E-03   '
               '3.3851E+01  0.000E+00  0.000E+00  0.000E+00  1.42246E+02  '
               '4.196E+00  8.782E+00  1.811E-03  8.685E-03 -1.799E-04\n',
               '-   1    4    8     1     8    3.3851E+01  8.5036E-03   '
               '3.3842E+01  0.000E+00  0.000E+00  0.000E+00  1.41945E+02  '
               '4.195E+00  8.781E+00  1.811E-03  8.683E-03 -1.797E-04\n',
               '-   1    4    9     1     9    3.3842E+01  8.5017E-03   '
               '3.3833E+01  0.000E+00  0.000E+00  0.000E+00  1.41645E+02  '
               '4.195E+00  8.779E+00  1.811E-03  8.681E-03 -1.796E-04\n',
               '-   1    4   10     1    10    3.3833E+01  8.4997E-03   '
               '3.3825E+01  0.000E+00  0.000E+00  0.000E+00  1.41344E+02  '
               '4.194E+00  8.777E+00  1.811E-03  8.679E-03 -1.794E-04\n',
               '-   1    4   11     1    11    3.3825E+01  8.4978E-03   '
               '3.3816E+01  0.000E+00  0.000E+00  0.000E+00  1.41044E+02  '
               '4.194E+00  8.776E+00  1.810E-03  8.677E-03 -1.793E-04\n',
               '-   1    4   12     1    12    3.3816E+01  8.4958E-03   '
               '3.3808E+01  0.000E+00  0.000E+00  0.000E+00  1.40744E+02  '
               '4.194E+00  8.774E+00  1.810E-03  8.675E-03 -1.791E-04\n',
               '-   1    4   13     1    13    3.3808E+01  8.4939E-03   '
               '3.3800E+01  0.000E+00  0.000E+00  0.000E+00  1.40443E+02  '
               '4.193E+00  8.772E+00  1.810E-03  8.673E-03 -1.789E-04\n',
               '-   1    4   14     1    14    3.3800E+01  8.4919E-03   '
               '3.3791E+01  0.000E+00  0.000E+00  0.000E+00  1.40143E+02  '
               '4.193E+00  8.771E+00  1.809E-03  8.671E-03 -1.787E-04\n',
               '-   1    4   15     1    15    3.3791E+01  8.4899E-03   '
               '3.3783E+01  0.000E+00  0.000E+00  0.000E+00  1.39842E+02  '
               '4.192E+00  8.769E+00  1.809E-03  8.668E-03 -1.785E-04\n',
               '-   1    4   16     1    16    3.3783E+01  8.4880E-03   '
               '3.3774E+01  0.000E+00  0.000E+00  0.000E+00  1.39542E+02  '
               '4.192E+00  8.767E+00  1.809E-03  8.666E-03 -1.782E-04\n',
               '-   1    4   17     1    17    3.3774E+01  8.4860E-03   '
               '3.3766E+01  0.000E+00  0.000E+00  0.000E+00  1.39241E+02  '
               '4.191E+00  8.766E+00  1.809E-03  8.664E-03 -1.780E-04\n',
               '-   1    4   18     1    18    3.3766E+01  8.4841E-03   '
               '3.3757E+01  0.000E+00  0.000E+00  0.000E+00  1.38941E+02  '
               '4.191E+00  8.764E+00  1.808E-03  8.662E-03 -1.778E-04\n',
               '-   1    4   19     1    19    3.3757E+01  8.4821E-03   '
               '3.3749E+01  0.000E+00  0.000E+00  0.000E+00  1.38641E+02  '
               '4.191E+00  8.763E+00  1.808E-03  8.660E-03 -1.775E-04\n',
               '-   1    4   20     1    20    3.3749E+01  8.4802E-03   '
               '3.3740E+01  0.000E+00  0.000E+00  0.000E+00  1.38340E+02  '
               '4.190E+00  8.761E+00  1.808E-03  8.657E-03 -1.772E-04\n',
               '-   1    4   21     1    21    3.3740E+01  8.4782E-03   '
               '3.3732E+01  0.000E+00  0.000E+00  0.000E+00  1.38040E+02  '
               '4.190E+00  8.759E+00  1.808E-03  8.655E-03 -1.770E-04\n',
               '-   1    4   22     1    22    3.3732E+01  8.4763E-03   '
               '3.3723E+01  0.000E+00  0.000E+00  0.000E+00  1.37739E+02  '
               '4.189E+00  8.758E+00  1.807E-03  8.653E-03 -1.767E-04\n',
               '-   1    4   23     1    23    3.3723E+01  8.4743E-03   '
               '3.3715E+01  0.000E+00  0.000E+00  0.000E+00  1.37439E+02  '
               '4.189E+00  8.756E+00  1.807E-03  8.651E-03 -1.763E-04\n',
               '-   1    4   24     1    24    3.3715E+01  8.4724E-03   '
               '3.3706E+01  0.000E+00  0.000E+00  0.000E+00  1.37139E+02  '
               '4.189E+00  8.754E+00  1.807E-03  8.648E-03 -1.760E-04\n',
               '-   1    4   25     1    25    3.3706E+01  8.4704E-03   '
               '3.3698E+01  0.000E+00  0.000E+00  0.000E+00  1.36838E+02  '
               '4.188E+00  8.753E+00  1.807E-03  8.646E-03 -1.757E-04\n',
               '-   1    4   26     1    26    3.3698E+01  8.4685E-03   '
               '3.3689E+01  0.000E+00  0.000E+00  0.000E+00  1.36538E+02  '
               '4.188E+00  8.751E+00  1.806E-03  8.644E-03 -1.753E-04\n',
               '-   1    4   27     1    27    3.3689E+01  8.4665E-03   '
               '3.3681E+01  0.000E+00  0.000E+00  0.000E+00  1.36237E+02  '
               '4.187E+00  8.749E+00  1.806E-03  8.641E-03 -1.748E-04\n',
               '-   1    4   28     1    28    3.3681E+01  8.4646E-03   '
               '3.3672E+01  0.000E+00  0.000E+00  0.000E+00  1.35937E+02  '
               '4.187E+00  8.748E+00  1.806E-03  8.639E-03 -1.744E-04\n',
               '-   1    4   29     1    29    3.3672E+01  8.4626E-03   '
               '3.3664E+01  0.000E+00  0.000E+00  0.000E+00  1.35637E+02  '
               '4.187E+00  8.746E+00  1.806E-03  8.637E-03 -1.739E-04\n',
               '-   1    4   30     1    30    3.3664E+01  8.4607E-03   '
               '3.3655E+01  0.000E+00  0.000E+00  0.000E+00  1.35336E+02  '
               '4.186E+00  8.744E+00  1.805E-03  8.634E-03 -1.733E-04\n',
               '-   1    4   31     1    31    3.3655E+01  8.4588E-03   '
               '3.3647E+01  0.000E+00  0.000E+00  0.000E+00  1.35036E+02  '
               '4.186E+00  8.743E+00  1.805E-03  8.631E-03 -1.727E-04\n',
               '-   1    4   32     1    32    3.3647E+01  8.4568E-03   '
               '3.3638E+01  0.000E+00  0.000E+00  0.000E+00  1.34735E+02  '
               '4.185E+00  8.741E+00  1.805E-03  8.629E-03 -1.720E-04\n',
               '-   1    4   33     1    33    3.3638E+01  8.4549E-03   '
               '3.3630E+01  0.000E+00  0.000E+00  0.000E+00  1.34435E+02  '
               '4.185E+00  8.739E+00  1.805E-03  8.626E-03 -1.713E-04\n',
               '-   1    4   34     1    34    3.3630E+01  8.4529E-03   '
               '3.3622E+01  0.000E+00  0.000E+00  0.000E+00  1.34134E+02  '
               '4.184E+00  8.738E+00  1.804E-03  8.623E-03 -1.705E-04\n',
               '-   1    4   35     1    35    3.3622E+01  8.4510E-03   '
               '3.3613E+01  0.000E+00  0.000E+00  0.000E+00  1.33834E+02  '
               '4.184E+00  8.736E+00  1.804E-03  8.621E-03 -1.696E-04\n',
               '-   1    4   36     1    36    3.3613E+01  8.4490E-03   '
               '3.3605E+01  0.000E+00  0.000E+00  0.000E+00  1.33534E+02  '
               '4.184E+00  8.735E+00  1.804E-03  8.618E-03 -1.687E-04\n',
               '-   1    4   37     1    37    3.3605E+01  8.4471E-03   '
               '3.3596E+01  0.000E+00  0.000E+00  0.000E+00  1.33233E+02  '
               '4.183E+00  8.733E+00  1.804E-03  8.615E-03 -1.676E-04\n',
               '-   1    4   38     1    38    3.3596E+01  8.4451E-03   '
               '3.3588E+01  0.000E+00  0.000E+00  0.000E+00  1.32933E+02  '
               '4.183E+00  8.731E+00  1.803E-03  8.612E-03 -1.664E-04\n',
               '-   1    4   39     1    39    3.3588E+01  8.4432E-03   '
               '3.3579E+01  0.000E+00  0.000E+00  0.000E+00  1.32632E+02  '
               '4.182E+00  8.730E+00  1.803E-03  8.608E-03 -1.651E-04\n',
               '-   1    4   40     1    40    3.3579E+01  8.4412E-03   '
               '3.3571E+01  0.000E+00  0.000E+00  0.000E+00  1.32332E+02  '
               '4.182E+00  8.728E+00  1.803E-03  8.605E-03 -1.637E-04\n',
               '-   1    4   41     1    41    3.3571E+01  8.4393E-03   '
               '3.3562E+01  0.000E+00  0.000E+00  0.000E+00  1.32032E+02  '
               '4.182E+00  8.726E+00  1.803E-03  8.602E-03 -1.622E-04\n',
               '-   1    4   42     1    42    3.3562E+01  8.4374E-03   '
               '3.3554E+01  0.000E+00  0.000E+00  0.000E+00  1.31731E+02  '
               '4.181E+00  8.725E+00  1.802E-03  8.598E-03 -1.605E-04\n',
               '-   1    4   43     1    43    3.3554E+01  8.4354E-03   '
               '3.3546E+01  0.000E+00  0.000E+00  0.000E+00  1.31431E+02  '
               '4.181E+00  8.723E+00  1.802E-03  8.594E-03 -1.587E-04\n',
               '-   1    4   44     1    44    3.3546E+01  8.4335E-03   '
               '3.3537E+01  0.000E+00  0.000E+00  0.000E+00  1.31130E+02  '
               '4.180E+00  8.721E+00  1.802E-03  8.590E-03 -1.568E-04\n',
               '-   1    4   45     1    45    3.3537E+01  8.4315E-03   '
               '3.3529E+01  0.000E+00  0.000E+00  0.000E+00  1.30830E+02  '
               '4.180E+00  8.720E+00  1.802E-03  8.586E-03 -1.547E-04\n',
               '-   1    4   46     1    46    3.3529E+01  8.4296E-03   '
               '3.3520E+01  0.000E+00  0.000E+00  0.000E+00  1.30530E+02  '
               '4.180E+00  8.718E+00  1.801E-03  8.582E-03 -1.524E-04\n',
               '-   1    4   47     1    47    3.3520E+01  8.4276E-03   '
               '3.3512E+01  0.000E+00  0.000E+00  0.000E+00  1.30229E+02  '
               '4.179E+00  8.717E+00  1.801E-03  8.578E-03 -1.499E-04\n',
               '-   1    4   48     1    48    3.3512E+01  8.4257E-03   '
               '3.3503E+01  0.000E+00  0.000E+00  0.000E+00  1.29929E+02  '
               '4.179E+00  8.715E+00  1.801E-03  8.573E-03 -1.473E-04\n',
               '-   1    4   49     1    49    3.3503E+01  8.4238E-03   '
               '3.3495E+01  0.000E+00  0.000E+00  0.000E+00  1.29628E+02  '
               '4.178E+00  8.713E+00  1.800E-03  8.568E-03 -1.444E-04\n',
               '-   1    4   50     1    50    3.3495E+01  8.4218E-03   '
               '3.3487E+01  0.000E+00  0.000E+00  0.000E+00  1.29328E+02  '
               '4.178E+00  8.712E+00  1.800E-03  8.563E-03 -1.414E-04\n',
               '-   1    4   51     1    51    3.3487E+01  8.4199E-03   '
               '3.3478E+01  0.000E+00  0.000E+00  0.000E+00  1.29027E+02  '
               '4.177E+00  8.710E+00  1.800E-03  8.558E-03 -1.382E-04\n',
               '-   1    4   52     1    52    3.3478E+01  8.4179E-03   '
               '3.3470E+01  0.000E+00  0.000E+00  0.000E+00  1.28727E+02  '
               '4.177E+00  8.708E+00  1.800E-03  8.553E-03 -1.348E-04\n',
               '-   1    4   53     1    53    3.3470E+01  8.4160E-03   '
               '3.3461E+01  0.000E+00  0.000E+00  0.000E+00  1.28427E+02  '
               '4.177E+00  8.707E+00  1.799E-03  8.547E-03 -1.312E-04\n',
               '-   1    4   54     1    54    3.3461E+01  8.4141E-03   '
               '3.3453E+01  0.000E+00  0.000E+00  0.000E+00  1.28126E+02  '
               '4.176E+00  8.705E+00  1.799E-03  8.541E-03 -1.274E-04\n',
               '-   1    4   55     1    55    3.3453E+01  8.4121E-03   '
               '3.3445E+01  0.000E+00  0.000E+00  0.000E+00  1.27826E+02  '
               '4.176E+00  8.703E+00  1.799E-03  8.535E-03 -1.233E-04\n',
               '-   1    4   56     1    56    3.3445E+01  8.4102E-03   '
               '3.3436E+01  0.000E+00  0.000E+00  0.000E+00  1.27525E+02  '
               '4.175E+00  8.702E+00  1.799E-03  8.529E-03 -1.191E-04\n',
               '-   1    4   57     1    57    3.3436E+01  8.4082E-03   '
               '3.3428E+01  0.000E+00  0.000E+00  0.000E+00  1.27225E+02  '
               '4.175E+00  8.700E+00  1.798E-03  8.523E-03 -1.147E-04\n',
               '-   1    4   58     1    58    3.3428E+01  8.4063E-03   '
               '3.3419E+01  0.000E+00  0.000E+00  0.000E+00  1.26925E+02  '
               '4.175E+00  8.698E+00  1.798E-03  8.516E-03 -1.101E-04\n',
               '-   1    4   59     1    59    3.3419E+01  8.4044E-03   '
               '3.3411E+01  0.000E+00  0.000E+00  0.000E+00  1.26624E+02  '
               '4.174E+00  8.697E+00  1.798E-03  8.510E-03 -1.053E-04\n',
               '-   1    4   60     1    60    3.3411E+01  8.4024E-03   '
               '3.3402E+01  0.000E+00  0.000E+00  0.000E+00  1.26324E+02  '
               '4.174E+00  8.695E+00  1.798E-03  8.503E-03 -1.004E-04\n',
               '-   1    4   61     1    61    3.3402E+01  8.4005E-03   '
               '3.3394E+01  0.000E+00  0.000E+00  0.000E+00  1.26023E+02  '
               '4.173E+00  8.694E+00  1.797E-03  8.496E-03 -9.529E-05\n',
               '-   1    4   62     1    62    3.3394E+01  8.3986E-03   '
               '3.3386E+01  0.000E+00  0.000E+00  0.000E+00  1.25723E+02  '
               '4.173E+00  8.692E+00  1.797E-03  8.489E-03 -9.005E-05\n',
               '-   1    4   63     1    63    3.3386E+01  8.3966E-03   '
               '3.3377E+01  0.000E+00  0.000E+00  0.000E+00  1.25423E+02  '
               '4.173E+00  8.690E+00  1.797E-03  8.481E-03 -8.468E-05\n',
               '-   1    4   64     1    64    3.3377E+01  8.3947E-03   '
               '3.3369E+01  0.000E+00  0.000E+00  0.000E+00  1.25122E+02  '
               '4.172E+00  8.689E+00  1.797E-03  8.474E-03 -7.920E-05\n',
               '-   1    4   65     1    65    3.3369E+01  8.3928E-03   '
               '3.3361E+01  0.000E+00  0.000E+00  0.000E+00  1.24822E+02  '
               '4.172E+00  8.687E+00  1.796E-03  8.466E-03 -7.364E-05\n',
               '-   1    4   66     1    66    3.3361E+01  8.3908E-03   '
               '3.3352E+01  0.000E+00  0.000E+00  0.000E+00  1.24521E+02  '
               '4.171E+00  8.685E+00  1.796E-03  8.459E-03 -6.801E-05\n',
               '-   1    4   67     1    67    3.3352E+01  8.3889E-03   '
               '3.3344E+01  0.000E+00  0.000E+00  0.000E+00  1.24221E+02  '
               '4.171E+00  8.684E+00  1.796E-03  8.451E-03 -6.234E-05\n',
               '-   1    4   68     1    68    3.3344E+01  8.3869E-03   '
               '3.3335E+01  0.000E+00  0.000E+00  0.000E+00  1.23921E+02  '
               '4.171E+00  8.682E+00  1.796E-03  8.444E-03 -5.665E-05\n',
               '-   1    4   69     1    69    3.3335E+01  8.3850E-03   '
               '3.3327E+01  0.000E+00  0.000E+00  0.000E+00  1.23620E+02  '
               '4.170E+00  8.680E+00  1.795E-03  8.436E-03 -5.097E-05\n',
               '-   1    4   70     1    70    3.3327E+01  8.3831E-03   '
               '3.3319E+01  0.000E+00  0.000E+00  0.000E+00  1.23320E+02  '
               '4.170E+00  8.679E+00  1.795E-03  8.428E-03 -4.532E-05\n',
               '-   1    4   71     1    71    3.3319E+01  8.3811E-03   '
               '3.3310E+01  0.000E+00  0.000E+00  0.000E+00  1.23019E+02  '
               '4.169E+00  8.677E+00  1.795E-03  8.421E-03 -3.974E-05\n',
               '-   1    4   72     1    72    3.3310E+01  8.3792E-03   '
               '3.3302E+01  0.000E+00  0.000E+00  0.000E+00  1.22719E+02  '
               '4.169E+00  8.675E+00  1.795E-03  8.413E-03 -3.424E-05\n',
               '-   1    4   73     1    73    3.3302E+01  8.3773E-03   '
               '3.3293E+01  0.000E+00  0.000E+00  0.000E+00  1.22418E+02  '
               '4.168E+00  8.674E+00  1.794E-03  8.406E-03 -2.887E-05\n',
               '-   1    4   74     1    74    3.3293E+01  8.3753E-03   '
               '3.3285E+01  0.000E+00  0.000E+00  0.000E+00  1.22118E+02  '
               '4.168E+00  8.672E+00  1.794E-03  8.399E-03 -2.364E-05\n',
               '-   1    4   75     1    75    3.3285E+01  8.3734E-03   '
               '3.3277E+01  0.000E+00  0.000E+00  0.000E+00  1.21818E+02  '
               '4.168E+00  8.671E+00  1.794E-03  8.392E-03 -1.859E-05\n',
               '-   1    4   76     1    76    3.3277E+01  8.3715E-03   '
               '3.3268E+01  0.000E+00  0.000E+00  0.000E+00  1.21517E+02  '
               '4.167E+00  8.669E+00  1.794E-03  8.385E-03 -1.374E-05\n',
               '-   1    4   77     1    77    3.3268E+01  8.3695E-03   '
               '3.3260E+01  0.000E+00  0.000E+00  0.000E+00  1.21217E+02  '
               '4.167E+00  8.667E+00  1.793E-03  8.379E-03 -9.121E-06\n',
               '-   1    4   78     1    78    3.3260E+01  8.3676E-03   '
               '3.3252E+01  0.000E+00  0.000E+00  0.000E+00  1.20916E+02  '
               '4.166E+00  8.666E+00  1.793E-03  8.372E-03 -4.747E-06\n',
               '-   1    4   79     1    79    3.3252E+01  8.3657E-03   '
               '3.3243E+01  0.000E+00  0.000E+00  0.000E+00  1.20616E+02  '
               '4.166E+00  8.664E+00  1.793E-03  8.366E-03 -6.374E-07\n',
               '-   1    4   80     1    80    3.3243E+01  8.3638E-03   '
               '3.3235E+01  0.000E+00  0.000E+00  0.000E+00  1.20316E+02  '
               '4.166E+00  8.662E+00  1.793E-03  8.361E-03  3.184E-06\n',
               '-   1    4   81     1    81    3.3235E+01  8.3618E-03   '
               '3.3226E+01  0.000E+00  0.000E+00  0.000E+00  1.20015E+02  '
               '4.165E+00  8.661E+00  1.792E-03  8.355E-03  6.712E-06\n',
               '-   1    4   82     1    82    3.3226E+01  8.3599E-03   '
               '3.3218E+01  0.000E+00  0.000E+00  0.000E+00  1.19715E+02  '
               '4.165E+00  8.659E+00  1.792E-03  8.350E-03  9.932E-06\n',
               '-   1    4   83     1    83    3.3218E+01  8.3580E-03   '
               '3.3210E+01  0.000E+00  0.000E+00  0.000E+00  1.19414E+02  '
               '4.164E+00  8.657E+00  1.792E-03  8.345E-03  1.284E-05\n',
               '-   1    4   84     1    84    3.3210E+01  8.3560E-03   '
               '3.3201E+01  0.000E+00  0.000E+00  0.000E+00  1.19114E+02  '
               '4.164E+00  8.656E+00  1.791E-03  8.341E-03  1.542E-05\n',
               '-   1    4   85     1    85    3.3201E+01  8.3541E-03   '
               '3.3193E+01  0.000E+00  0.000E+00  0.000E+00  1.18814E+02  '
               '4.164E+00  8.654E+00  1.791E-03  8.336E-03  1.769E-05\n',
               '-   1    4   86     1    86    3.3193E+01  8.3522E-03   '
               '3.3185E+01  0.000E+00  0.000E+00  0.000E+00  1.18513E+02  '
               '4.163E+00  8.653E+00  1.791E-03  8.333E-03  1.965E-05\n',
               '-   1    4   87     1    87    3.3185E+01  8.3503E-03   '
               '3.3176E+01  0.000E+00  0.000E+00  0.000E+00  1.18213E+02  '
               '4.163E+00  8.651E+00  1.791E-03  8.329E-03  2.130E-05\n',
               '-   1    4   88     1    88    3.3176E+01  8.3483E-03   '
               '3.3168E+01  0.000E+00  0.000E+00  0.000E+00  1.17912E+02  '
               '4.162E+00  8.649E+00  1.790E-03  8.326E-03  2.264E-05\n',
               '-   1    4   89     1    89    3.3168E+01  8.3464E-03   '
               '3.3160E+01  0.000E+00  0.000E+00  0.000E+00  1.17612E+02  '
               '4.162E+00  8.648E+00  1.790E-03  8.323E-03  2.369E-05\n',
               '-   1    4   90     1    90    3.3160E+01  8.3445E-03   '
               '3.3151E+01  0.000E+00  0.000E+00  0.000E+00  1.17312E+02  '
               '4.162E+00  8.646E+00  1.790E-03  8.320E-03  2.441E-05\n',
               '-   1    4   91     1    91    3.3151E+01  8.3425E-03   '
               '3.3143E+01  0.000E+00  0.000E+00  0.000E+00  1.17011E+02  '
               '4.161E+00  8.644E+00  1.790E-03  8.318E-03  2.482E-05\n',
               '-   1    4   92     1    92    3.3143E+01  8.3406E-03   '
               '3.3135E+01  0.000E+00  0.000E+00  0.000E+00  1.16711E+02  '
               '4.161E+00  8.643E+00  1.789E-03  8.316E-03  2.500E-05\n',
               '-   1    4   93     1    93    3.3135E+01  8.3387E-03   '
               '3.3126E+01  0.000E+00  0.000E+00  0.000E+00  1.16410E+02  '
               '4.160E+00  8.641E+00  1.789E-03  8.314E-03  2.468E-05\n',
               '-   1    4   94     1    94    3.3126E+01  8.3368E-03   '
               '3.3118E+01  0.000E+00  0.000E+00  0.000E+00  1.16110E+02  '
               '4.160E+00  8.639E+00  1.789E-03  8.335E-03  1.665E-06\n',
               '-   1    4   95     1    95    3.3118E+01  8.3348E-03   '
               '3.3110E+01  0.000E+00  0.000E+00  0.000E+00  1.15809E+02  '
               '4.159E+00  8.638E+00  1.789E-03  8.363E-03 -2.844E-05\n',
               '-   1    4   96     1    96    3.3110E+01  8.3329E-03   '
               '3.3101E+01  0.000E+00  0.000E+00  0.000E+00  1.15509E+02  '
               '4.159E+00  8.636E+00  1.788E-03  8.374E-03 -4.078E-05\n',
               '-   1    4   97     1    97    3.3101E+01  8.3310E-03   '
               '3.3093E+01  0.000E+00  0.000E+00  0.000E+00  1.15209E+02  '
               '4.159E+00  8.635E+00  1.788E-03  8.381E-03 -4.967E-05\n',
               '-   1    4   98     1    98    3.3093E+01  8.3291E-03   '
               '3.3085E+01  0.000E+00  0.000E+00  0.000E+00  1.14908E+02  '
               '4.158E+00  8.633E+00  1.788E-03  8.415E-03 -8.599E-05\n',
               '-   1    4   99     1    99    3.3085E+01  8.3271E-03   '
               '3.3076E+01  0.000E+00  0.000E+00  0.000E+00  1.14608E+02  '
               '4.158E+00  8.631E+00  1.788E-03  8.448E-03 -1.208E-04\n',
               '-   1    4  100     1   100    3.3076E+01  8.3252E-03   '
               '3.3068E+01  0.000E+00  0.000E+00  0.000E+00  1.14307E+02  '
               '4.157E+00  8.630E+00  1.787E-03  8.455E-03 -1.301E-04\n',
               '-\n',
               '-\n',
               '-\n',
               '-1\n',
               '-  VOLUMETRIC BUDGET FOR UNSATURATED ZONE BENEATH STREAMS AT '
               'END OF TIME STEP    30 STRESS PERIOD   8\n',
               '-  '
               '------------------------------------------------------------------------------------------------\n',
               '-\n',
               '-    CUMULATIVE VOLUMES             L**3    RATES FOR THIS '
               'TIME STEP         L**3/T\n',
               '-    ------------------                     '
               '------------------------\n',
               '-\n',
               '-\n',
               '-          STREAM LOSS =     10492040.0000            STREAM '
               'LOSS =            0.8421\n',
               '-    CHANGE IN STORAGE =      1046851.3125      CHANGE IN '
               'STORAGE =       -1.0838E-02\n',
               '-       RECHARGE TO GW =      9448084.0000         RECHARGE TO '
               'GW =            0.8529\n',
               '-\n',
               '-             TOTAL IN =     10492040.0000               TOTAL '
               'IN =            0.8529\n',
               '-\n',
               '-            TOTAL OUT =     10494935.0000              TOTAL '
               'OUT =            0.8529\n',
               '-\n',
               '-             IN - OUT =        -2895.0000               IN - '
               'OUT =            0.0000\n',
               '-\n',
               '-  PERCENT DISCREPANCY =           -0.01      PERCENT '
               'DISCREPANCY =             0.00\n',
               '-\n',
               '-\n',
               '-\n',
               '-1\n',
               '-  VOLUMETRIC BUDGET FOR ENTIRE MODEL AT END OF TIME STEP   '
               '30, STRESS PERIOD   8\n',
               '-  '
               '------------------------------------------------------------------------------\n',
               '-\n',
               '-     CUMULATIVE VOLUMES      L**3       RATES FOR THIS TIME '
               'STEP      L**3/T\n',
               '-     ------------------                 '
               '------------------------\n',
               '-\n',
               '-           IN:                                      IN:\n',
               '-           ---                                      ---\n',
               '-             STORAGE =     7254056.5000               STORAGE '
               '=       1.7280E-02\n',
               '-       CONSTANT HEAD =           0.0000         CONSTANT HEAD '
               '=           0.0000\n',
               '-     HEAD DEP BOUNDS =           0.0000       HEAD DEP BOUNDS '
               '=           0.0000\n',
               '-      STREAM LEAKAGE =     9448098.0000        STREAM LEAKAGE '
               '=           0.8529\n',
               '-\n',
               '-            TOTAL IN =    16702154.0000              TOTAL IN '
               '=           0.8702\n',
               '-\n',
               '-          OUT:                                     OUT:\n',
               '-          ----                                     ----\n',
               '-             STORAGE =     5877141.5000               STORAGE '
               '=           0.5204\n',
               '-       CONSTANT HEAD =           0.0000         CONSTANT HEAD '
               '=           0.0000\n',
               '-     HEAD DEP BOUNDS =    10824996.0000       HEAD DEP BOUNDS '
               '=           0.3498\n',
               '-      STREAM LEAKAGE =           0.0000        STREAM LEAKAGE '
               '=           0.0000\n',
               '-\n',
               '-           TOTAL OUT =    16702138.0000             TOTAL OUT '
               '=           0.8702\n',
               '-\n',
               '-            IN - OUT =          16.0000              IN - OUT '
               '=       4.4644E-05\n',
               '-\n',
               '- PERCENT DISCREPANCY =           0.00     PERCENT DISCREPANCY '
               '=           0.01\n',
               '-\n',
               '-\n',
               '-\n',
               '-\n',
               '-\n',
               '-\n',
               '-         TIME SUMMARY AT END OF TIME STEP   30 IN STRESS '
               'PERIOD    8\n',
               '-                    SECONDS     MINUTES      HOURS       '
               'DAYS        YEARS\n',
               '-                    '
               '-----------------------------------------------------------\n',
               '-   TIME STEP LENGTH 2.49961E+05  4166.0      69.434      '
               '2.8931     7.92080E-03\n',
               '- STRESS PERIOD TIME 2.59200E+06  43200.      720.00      '
               '30.000     8.21355E-02\n',
               '-         TOTAL TIME 2.07360E+07 3.45600E+05  5760.0      '
               '240.00     0.65708    \n',
               '-1\n',
               '-1\n',
               '-                            STRESS PERIOD NO.    9, LENGTH '
               '=   2592000.    \n',
               '-                            '
               '-----------------------------------------------\n',
               '-\n',
               '-                              NUMBER OF TIME STEPS =    30\n',
               '-\n',
               '-                               MULTIPLIER FOR DELT =     '
               '1.100\n',
               '-\n',
               '-                            INITIAL TIME STEP SIZE =   '
               '15757.40    \n',
               '-\n',
               '- REUSING NON-PARAMETER GHB CELLS FROM LAST STRESS PERIOD\n',
               '-\n',
               '-      7 GHB CELLS\n',
               '- \n',
               '- SOLVING FOR HEAD \n',
               '-\n',
               '- NO OUTPUT CONTROL FOR STRESS PERIOD    9   TIME STEP    1\n',
               '- \n',
               '- SOLVING FOR HEAD \n',
               '-\n',
               '- NO OUTPUT CONTROL FOR STRESS PERIOD    9   TIME STEP    2\n',
               '- \n',
               '- SOLVING FOR HEAD \n',
               '-\n',
               '- NO OUTPUT CONTROL FOR STRESS PERIOD    9   TIME STEP    3\n',
               '- \n',
               '- SOLVING FOR HEAD \n',
               '-\n',
               '- NO OUTPUT CONTROL FOR STRESS PERIOD    9   TIME STEP    4\n',
               '- \n',
               '- SOLVING FOR HEAD \n',
               '-\n',
               '- NO OUTPUT CONTROL FOR STRESS PERIOD    9   TIME STEP    5\n',
               '- \n',
               '- SOLVING FOR HEAD \n',
               '-\n',
               '- NO OUTPUT CONTROL FOR STRESS PERIOD    9   TIME STEP    6\n',
               '- \n',
               '- SOLVING FOR HEAD \n',
               '-\n',
               '- NO OUTPUT CONTROL FOR STRESS PERIOD    9   TIME STEP    7\n',
               '- \n',
               '- SOLVING FOR HEAD \n',
               '-\n',
               '- NO OUTPUT CONTROL FOR STRESS PERIOD    9   TIME STEP    8\n',
               '- \n',
               '- SOLVING FOR HEAD \n',
               '-\n',
               '- NO OUTPUT CONTROL FOR STRESS PERIOD    9   TIME STEP    9\n',
               '- \n',
               '- SOLVING FOR HEAD \n',
               '-\n',
               '- NO OUTPUT CONTROL FOR STRESS PERIOD    9   TIME STEP   10\n',
               '- \n',
               '- SOLVING FOR HEAD \n',
               '-\n',
               '- NO OUTPUT CONTROL FOR STRESS PERIOD    9   TIME STEP   11\n',
               '- \n',
               '- SOLVING FOR HEAD \n',
               '-\n',
               '- NO OUTPUT CONTROL FOR STRESS PERIOD    9   TIME STEP   12\n',
               '- \n',
               '- SOLVING FOR HEAD \n',
               '-\n',
               '- NO OUTPUT CONTROL FOR STRESS PERIOD    9   TIME STEP   13\n',
               '- \n',
               '- SOLVING FOR HEAD \n',
               '-\n',
               '- NO OUTPUT CONTROL FOR STRESS PERIOD    9   TIME STEP   14\n',
               '- \n',
               '- SOLVING FOR HEAD \n',
               '-\n',
               '- NO OUTPUT CONTROL FOR STRESS PERIOD    9   TIME STEP   15\n',
               '- \n',
               '- SOLVING FOR HEAD \n',
               '-\n',
               '- NO OUTPUT CONTROL FOR STRESS PERIOD    9   TIME STEP   16\n',
               '- \n',
               '- SOLVING FOR HEAD \n',
               '-\n',
               '- NO OUTPUT CONTROL FOR STRESS PERIOD    9   TIME STEP   17\n',
               '- \n',
               '- SOLVING FOR HEAD \n',
               '-\n',
               '- NO OUTPUT CONTROL FOR STRESS PERIOD    9   TIME STEP   18\n',
               '- \n',
               '- SOLVING FOR HEAD \n',
               '-\n',
               '- NO OUTPUT CONTROL FOR STRESS PERIOD    9   TIME STEP   19\n',
               '- \n',
               '- SOLVING FOR HEAD \n',
               '-\n',
               '- NO OUTPUT CONTROL FOR STRESS PERIOD    9   TIME STEP   20\n',
               '- \n',
               '- SOLVING FOR HEAD \n',
               '-\n',
               '- NO OUTPUT CONTROL FOR STRESS PERIOD    9   TIME STEP   21\n',
               '- \n',
               '- SOLVING FOR HEAD \n',
               '-\n',
               '- NO OUTPUT CONTROL FOR STRESS PERIOD    9   TIME STEP   22\n',
               '- \n',
               '- SOLVING FOR HEAD \n',
               '-\n',
               '- NO OUTPUT CONTROL FOR STRESS PERIOD    9   TIME STEP   23\n',
               '- \n',
               '- SOLVING FOR HEAD \n',
               '-\n',
               '- NO OUTPUT CONTROL FOR STRESS PERIOD    9   TIME STEP   24\n',
               '- \n',
               '- SOLVING FOR HEAD \n',
               '-\n',
               '- NO OUTPUT CONTROL FOR STRESS PERIOD    9   TIME STEP   25\n',
               '- \n',
               '- SOLVING FOR HEAD \n',
               '-\n',
               '- NO OUTPUT CONTROL FOR STRESS PERIOD    9   TIME STEP   26\n',
               '- \n',
               '- SOLVING FOR HEAD \n',
               '-\n',
               '- NO OUTPUT CONTROL FOR STRESS PERIOD    9   TIME STEP   27\n',
               '- \n',
               '- SOLVING FOR HEAD \n',
               '-\n',
               '- NO OUTPUT CONTROL FOR STRESS PERIOD    9   TIME STEP   28\n',
               '- \n',
               '- SOLVING FOR HEAD \n',
               '-\n',
               '- NO OUTPUT CONTROL FOR STRESS PERIOD    9   TIME STEP   29\n',
               '- \n',
               '- SOLVING FOR HEAD \n',
               '-\n',
               '- NO OUTPUT CONTROL FOR STRESS PERIOD    9   TIME STEP   30\n',
               '-\n',
               '-\n',
               '-\n',
               '- STREAM LISTING     PERIOD      9   STEP       30\n',
               '-\n',
               '- LAYER ROW COL. STREAM  RCH.   FLOW INTO    STREAM     FLOW '
               'OUT OF   OVRLND.    DIRECT     STREAM      STREAM      '
               'STREAM     STREAM  STREAMBED   FLOW TO   CHNG. UNSAT. \n',
               '-                SEG.NO.  NO.   STRM. RCH.    LOSS       STRM. '
               'RCH.   RUNOFF     PRECIP       ET         HEAD        '
               'DEPTH      WIDTH  CONDCTNC.   WAT. TAB.\n',
               '-\n',
               '-   1    4    1     1     1    1.6280E+01  4.4118E-03   '
               '1.6276E+01  0.000E+00  0.000E+00  0.000E+00  1.42920E+02  '
               '3.070E+00  5.486E+00  1.236E-03  4.786E-03 -3.746E-04\n',
               '-   1    4    2     1     2    1.6276E+01  4.4108E-03   '
               '1.6271E+01  0.000E+00  0.000E+00  0.000E+00  1.42620E+02  '
               '3.070E+00  5.485E+00  1.235E-03  4.782E-03 -3.710E-04\n',
               '-   1    4    3     1     3    1.6271E+01  4.4098E-03   '
               '1.6267E+01  0.000E+00  0.000E+00  0.000E+00  1.42319E+02  '
               '3.069E+00  5.485E+00  1.235E-03  4.777E-03 -3.671E-04\n',
               '-   1    4    4     1     4    1.6267E+01  4.4089E-03   '
               '1.6262E+01  0.000E+00  0.000E+00  0.000E+00  1.42019E+02  '
               '3.069E+00  5.484E+00  1.235E-03  4.771E-03 -3.624E-04\n',
               '-   1    4    5     1     5    1.6262E+01  4.4079E-03   '
               '1.6258E+01  0.000E+00  0.000E+00  0.000E+00  1.41719E+02  '
               '3.069E+00  5.484E+00  1.235E-03  4.766E-03 -3.581E-04\n',
               '-   1    4    6     1     6    1.6258E+01  4.4069E-03   '
               '1.6254E+01  0.000E+00  0.000E+00  0.000E+00  1.41418E+02  '
               '3.068E+00  5.483E+00  1.235E-03  4.761E-03 -3.538E-04\n',
               '-   1    4    7     1     7    1.6254E+01  4.4059E-03   '
               '1.6249E+01  0.000E+00  0.000E+00  0.000E+00  1.41118E+02  '
               '3.068E+00  5.483E+00  1.235E-03  4.755E-03 -3.496E-04\n',
               '-   1    4    8     1     8    1.6249E+01  4.4049E-03   '
               '1.6245E+01  0.000E+00  0.000E+00  0.000E+00  1.40817E+02  '
               '3.067E+00  5.482E+00  1.235E-03  4.750E-03 -3.452E-04\n',
               '-   1    4    9     1     9    1.6245E+01  4.4039E-03   '
               '1.6240E+01  0.000E+00  0.000E+00  0.000E+00  1.40517E+02  '
               '3.067E+00  5.482E+00  1.234E-03  4.745E-03 -3.408E-04\n',
               '-   1    4   10     1    10    1.6240E+01  4.4029E-03   '
               '1.6236E+01  0.000E+00  0.000E+00  0.000E+00  1.40217E+02  '
               '3.067E+00  5.481E+00  1.234E-03  4.741E-03 -3.379E-04\n',
               '-   1    4   11     1    11    1.6236E+01  4.4020E-03   '
               '1.6232E+01  0.000E+00  0.000E+00  0.000E+00  1.39916E+02  '
               '3.066E+00  5.481E+00  1.234E-03  4.737E-03 -3.350E-04\n',
               '-   1    4   12     1    12    1.6232E+01  4.4010E-03   '
               '1.6227E+01  0.000E+00  0.000E+00  0.000E+00  1.39616E+02  '
               '3.066E+00  5.480E+00  1.234E-03  4.733E-03 -3.323E-04\n',
               '-   1    4   13     1    13    1.6227E+01  4.4000E-03   '
               '1.6223E+01  0.000E+00  0.000E+00  0.000E+00  1.39315E+02  '
               '3.065E+00  5.480E+00  1.234E-03  4.727E-03 -3.273E-04\n',
               '-   1    4   14     1    14    1.6223E+01  4.3990E-03   '
               '1.6218E+01  0.000E+00  0.000E+00  0.000E+00  1.39015E+02  '
               '3.065E+00  5.479E+00  1.234E-03  4.721E-03 -3.222E-04\n',
               '-   1    4   15     1    15    1.6218E+01  4.3980E-03   '
               '1.6214E+01  0.000E+00  0.000E+00  0.000E+00  1.38714E+02  '
               '3.064E+00  5.479E+00  1.234E-03  4.715E-03 -3.171E-04\n',
               '-   1    4   16     1    16    1.6214E+01  4.3970E-03   '
               '1.6210E+01  0.000E+00  0.000E+00  0.000E+00  1.38414E+02  '
               '3.064E+00  5.478E+00  1.234E-03  4.709E-03 -3.118E-04\n',
               '-   1    4   17     1    17    1.6210E+01  4.3961E-03   '
               '1.6205E+01  0.000E+00  0.000E+00  0.000E+00  1.38114E+02  '
               '3.064E+00  5.478E+00  1.233E-03  4.705E-03 -3.085E-04\n',
               '-   1    4   18     1    18    1.6205E+01  4.3951E-03   '
               '1.6201E+01  0.000E+00  0.000E+00  0.000E+00  1.37813E+02  '
               '3.063E+00  5.477E+00  1.233E-03  4.700E-03 -3.052E-04\n',
               '-   1    4   19     1    19    1.6201E+01  4.3941E-03   '
               '1.6196E+01  0.000E+00  0.000E+00  0.000E+00  1.37513E+02  '
               '3.063E+00  5.477E+00  1.233E-03  4.696E-03 -3.018E-04\n',
               '-   1    4   20     1    20    1.6196E+01  4.3931E-03   '
               '1.6192E+01  0.000E+00  0.000E+00  0.000E+00  1.37212E+02  '
               '3.062E+00  5.476E+00  1.233E-03  4.692E-03 -2.985E-04\n',
               '-   1    4   21     1    21    1.6192E+01  4.3921E-03   '
               '1.6188E+01  0.000E+00  0.000E+00  0.000E+00  1.36912E+02  '
               '3.062E+00  5.476E+00  1.233E-03  4.687E-03 -2.951E-04\n',
               '-   1    4   22     1    22    1.6188E+01  4.3912E-03   '
               '1.6183E+01  0.000E+00  0.000E+00  0.000E+00  1.36612E+02  '
               '3.062E+00  5.476E+00  1.233E-03  4.683E-03 -2.920E-04\n',
               '-   1    4   23     1    23    1.6183E+01  4.3902E-03   '
               '1.6179E+01  0.000E+00  0.000E+00  0.000E+00  1.36311E+02  '
               '3.061E+00  5.475E+00  1.233E-03  4.676E-03 -2.861E-04\n',
               '-   1    4   24     1    24    1.6179E+01  4.3892E-03   '
               '1.6174E+01  0.000E+00  0.000E+00  0.000E+00  1.36011E+02  '
               '3.061E+00  5.475E+00  1.232E-03  4.669E-03 -2.803E-04\n',
               '-   1    4   25     1    25    1.6174E+01  4.3882E-03   '
               '1.6170E+01  0.000E+00  0.000E+00  0.000E+00  1.35710E+02  '
               '3.060E+00  5.474E+00  1.232E-03  4.665E-03 -2.765E-04\n',
               '-   1    4   26     1    26    1.6170E+01  4.3872E-03   '
               '1.6166E+01  0.000E+00  0.000E+00  0.000E+00  1.35410E+02  '
               '3.060E+00  5.474E+00  1.232E-03  4.660E-03 -2.727E-04\n',
               '-   1    4   27     1    27    1.6166E+01  4.3862E-03   '
               '1.6161E+01  0.000E+00  0.000E+00  0.000E+00  1.35110E+02  '
               '3.060E+00  5.473E+00  1.232E-03  4.655E-03 -2.689E-04\n',
               '-   1    4   28     1    28    1.6161E+01  4.3853E-03   '
               '1.6157E+01  0.000E+00  0.000E+00  0.000E+00  1.34809E+02  '
               '3.059E+00  5.473E+00  1.232E-03  4.650E-03 -2.651E-04\n',
               '-   1    4   29     1    29    1.6157E+01  4.3843E-03   '
               '1.6152E+01  0.000E+00  0.000E+00  0.000E+00  1.34509E+02  '
               '3.059E+00  5.472E+00  1.232E-03  4.646E-03 -2.612E-04\n',
               '-   1    4   30     1    30    1.6152E+01  4.3833E-03   '
               '1.6148E+01  0.000E+00  0.000E+00  0.000E+00  1.34208E+02  '
               '3.058E+00  5.472E+00  1.232E-03  4.641E-03 -2.573E-04\n',
               '-   1    4   31     1    31    1.6148E+01  4.3823E-03   '
               '1.6144E+01  0.000E+00  0.000E+00  0.000E+00  1.33908E+02  '
               '3.058E+00  5.471E+00  1.232E-03  4.636E-03 -2.534E-04\n',
               '-   1    4   32     1    32    1.6144E+01  4.3813E-03   '
               '1.6139E+01  0.000E+00  0.000E+00  0.000E+00  1.33608E+02  '
               '3.058E+00  5.471E+00  1.231E-03  4.631E-03 -2.494E-04\n',
               '-   1    4   33     1    33    1.6139E+01  4.3804E-03   '
               '1.6135E+01  0.000E+00  0.000E+00  0.000E+00  1.33307E+02  '
               '3.057E+00  5.470E+00  1.231E-03  4.626E-03 -2.452E-04\n',
               '-   1    4   34     1    34    1.6135E+01  4.3794E-03   '
               '1.6131E+01  0.000E+00  0.000E+00  0.000E+00  1.33007E+02  '
               '3.057E+00  5.470E+00  1.231E-03  4.620E-03 -2.408E-04\n',
               '-   1    4   35     1    35    1.6131E+01  4.3784E-03   '
               '1.6126E+01  0.000E+00  0.000E+00  0.000E+00  1.32706E+02  '
               '3.056E+00  5.469E+00  1.231E-03  4.615E-03 -2.364E-04\n',
               '-   1    4   36     1    36    1.6126E+01  4.3774E-03   '
               '1.6122E+01  0.000E+00  0.000E+00  0.000E+00  1.32406E+02  '
               '3.056E+00  5.469E+00  1.231E-03  4.609E-03 -2.319E-04\n',
               '-   1    4   37     1    37    1.6122E+01  4.3764E-03   '
               '1.6117E+01  0.000E+00  0.000E+00  0.000E+00  1.32105E+02  '
               '3.055E+00  5.468E+00  1.231E-03  4.604E-03 -2.274E-04\n',
               '-   1    4   38     1    38    1.6117E+01  4.3755E-03   '
               '1.6113E+01  0.000E+00  0.000E+00  0.000E+00  1.31805E+02  '
               '3.055E+00  5.468E+00  1.231E-03  4.598E-03 -2.228E-04\n',
               '-   1    4   39     1    39    1.6113E+01  4.3745E-03   '
               '1.6109E+01  0.000E+00  0.000E+00  0.000E+00  1.31505E+02  '
               '3.055E+00  5.467E+00  1.230E-03  4.593E-03 -2.182E-04\n',
               '-   1    4   40     1    40    1.6109E+01  4.3735E-03   '
               '1.6104E+01  0.000E+00  0.000E+00  0.000E+00  1.31204E+02  '
               '3.054E+00  5.467E+00  1.230E-03  4.587E-03 -2.135E-04\n',
               '-   1    4   41     1    41    1.6104E+01  4.3725E-03   '
               '1.6100E+01  0.000E+00  0.000E+00  0.000E+00  1.30904E+02  '
               '3.054E+00  5.466E+00  1.230E-03  4.581E-03 -2.088E-04\n',
               '-   1    4   42     1    42    1.6100E+01  4.3716E-03   '
               '1.6096E+01  0.000E+00  0.000E+00  0.000E+00  1.30603E+02  '
               '3.053E+00  5.466E+00  1.230E-03  4.576E-03 -2.041E-04\n',
               '-   1    4   43     1    43    1.6096E+01  4.3706E-03   '
               '1.6091E+01  0.000E+00  0.000E+00  0.000E+00  1.30303E+02  '
               '3.053E+00  5.465E+00  1.230E-03  4.572E-03 -2.019E-04\n',
               '-   1    4   44     1    44    1.6091E+01  4.3696E-03   '
               '1.6087E+01  0.000E+00  0.000E+00  0.000E+00  1.30003E+02  '
               '3.053E+00  5.465E+00  1.230E-03  4.568E-03 -1.984E-04\n',
               '-   1    4   45     1    45    1.6087E+01  4.3686E-03   '
               '1.6082E+01  0.000E+00  0.000E+00  0.000E+00  1.29702E+02  '
               '3.052E+00  5.464E+00  1.230E-03  4.562E-03 -1.932E-04\n',
               '-   1    4   46     1    46    1.6082E+01  4.3676E-03   '
               '1.6078E+01  0.000E+00  0.000E+00  0.000E+00  1.29402E+02  '
               '3.052E+00  5.464E+00  1.230E-03  4.556E-03 -1.879E-04\n',
               '-   1    4   47     1    47    1.6078E+01  4.3667E-03   '
               '1.6074E+01  0.000E+00  0.000E+00  0.000E+00  1.29101E+02  '
               '3.051E+00  5.463E+00  1.229E-03  4.549E-03 -1.825E-04\n',
               '-   1    4   48     1    48    1.6074E+01  4.3657E-03   '
               '1.6069E+01  0.000E+00  0.000E+00  0.000E+00  1.28801E+02  '
               '3.051E+00  5.463E+00  1.229E-03  4.543E-03 -1.771E-04\n',
               '-   1    4   49     1    49    1.6069E+01  4.3647E-03   '
               '1.6065E+01  0.000E+00  0.000E+00  0.000E+00  1.28501E+02  '
               '3.051E+00  5.462E+00  1.229E-03  4.536E-03 -1.716E-04\n',
               '-   1    4   50     1    50    1.6065E+01  4.3637E-03   '
               '1.6061E+01  0.000E+00  0.000E+00  0.000E+00  1.28200E+02  '
               '3.050E+00  5.462E+00  1.229E-03  4.530E-03 -1.662E-04\n',
               '-   1    4   51     1    51    1.6061E+01  4.3628E-03   '
               '1.6056E+01  0.000E+00  0.000E+00  0.000E+00  1.27900E+02  '
               '3.050E+00  5.461E+00  1.229E-03  4.523E-03 -1.607E-04\n',
               '-   1    4   52     1    52    1.6056E+01  4.3618E-03   '
               '1.6052E+01  0.000E+00  0.000E+00  0.000E+00  1.27599E+02  '
               '3.049E+00  5.461E+00  1.229E-03  4.517E-03 -1.552E-04\n',
               '-   1    4   53     1    53    1.6052E+01  4.3608E-03   '
               '1.6048E+01  0.000E+00  0.000E+00  0.000E+00  1.27299E+02  '
               '3.049E+00  5.460E+00  1.229E-03  4.510E-03 -1.496E-04\n',
               '-   1    4   54     1    54    1.6048E+01  4.3598E-03   '
               '1.6043E+01  0.000E+00  0.000E+00  0.000E+00  1.26999E+02  '
               '3.049E+00  5.460E+00  1.228E-03  4.505E-03 -1.456E-04\n',
               '-   1    4   55     1    55    1.6043E+01  4.3589E-03   '
               '1.6039E+01  0.000E+00  0.000E+00  0.000E+00  1.26698E+02  '
               '3.048E+00  5.459E+00  1.228E-03  4.501E-03 -1.420E-04\n',
               '-   1    4   56     1    56    1.6039E+01  4.3579E-03   '
               '1.6034E+01  0.000E+00  0.000E+00  0.000E+00  1.26398E+02  '
               '3.048E+00  5.459E+00  1.228E-03  4.496E-03 -1.383E-04\n',
               '-   1    4   57     1    57    1.6034E+01  4.3569E-03   '
               '1.6030E+01  0.000E+00  0.000E+00  0.000E+00  1.26097E+02  '
               '3.047E+00  5.458E+00  1.228E-03  4.491E-03 -1.345E-04\n',
               '-   1    4   58     1    58    1.6030E+01  4.3559E-03   '
               '1.6026E+01  0.000E+00  0.000E+00  0.000E+00  1.25797E+02  '
               '3.047E+00  5.458E+00  1.228E-03  4.487E-03 -1.306E-04\n',
               '-   1    4   59     1    59    1.6026E+01  4.3550E-03   '
               '1.6021E+01  0.000E+00  0.000E+00  0.000E+00  1.25496E+02  '
               '3.046E+00  5.457E+00  1.228E-03  4.481E-03 -1.259E-04\n',
               '-   1    4   60     1    60    1.6021E+01  4.3540E-03   '
               '1.6017E+01  0.000E+00  0.000E+00  0.000E+00  1.25196E+02  '
               '3.046E+00  5.457E+00  1.228E-03  4.475E-03 -1.206E-04\n',
               '-   1    4   61     1    61    1.6017E+01  4.3530E-03   '
               '1.6013E+01  0.000E+00  0.000E+00  0.000E+00  1.24896E+02  '
               '3.046E+00  5.456E+00  1.228E-03  4.468E-03 -1.154E-04\n',
               '-   1    4   62     1    62    1.6013E+01  4.3520E-03   '
               '1.6008E+01  0.000E+00  0.000E+00  0.000E+00  1.24595E+02  '
               '3.045E+00  5.456E+00  1.227E-03  4.462E-03 -1.104E-04\n',
               '-   1    4   63     1    63    1.6008E+01  4.3511E-03   '
               '1.6004E+01  0.000E+00  0.000E+00  0.000E+00  1.24295E+02  '
               '3.045E+00  5.455E+00  1.227E-03  4.457E-03 -1.056E-04\n',
               '-   1    4   64     1    64    1.6004E+01  4.3501E-03   '
               '1.6000E+01  0.000E+00  0.000E+00  0.000E+00  1.23994E+02  '
               '3.044E+00  5.455E+00  1.227E-03  4.451E-03 -1.010E-04\n',
               '-   1    4   65     1    65    1.6000E+01  4.3491E-03   '
               '1.5995E+01  0.000E+00  0.000E+00  0.000E+00  1.23694E+02  '
               '3.044E+00  5.454E+00  1.227E-03  4.446E-03 -9.664E-05\n',
               '-   1    4   66     1    66    1.5995E+01  4.3481E-03   '
               '1.5991E+01  0.000E+00  0.000E+00  0.000E+00  1.23394E+02  '
               '3.044E+00  5.454E+00  1.227E-03  4.441E-03 -9.255E-05\n',
               '-   1    4   67     1    67    1.5991E+01  4.3472E-03   '
               '1.5987E+01  0.000E+00  0.000E+00  0.000E+00  1.23093E+02  '
               '3.043E+00  5.453E+00  1.227E-03  4.436E-03 -8.876E-05\n',
               '-   1    4   68     1    68    1.5987E+01  4.3462E-03   '
               '1.5982E+01  0.000E+00  0.000E+00  0.000E+00  1.22793E+02  '
               '3.043E+00  5.453E+00  1.227E-03  4.431E-03 -8.530E-05\n',
               '-   1    4   69     1    69    1.5982E+01  4.3452E-03   '
               '1.5978E+01  0.000E+00  0.000E+00  0.000E+00  1.22492E+02  '
               '3.042E+00  5.453E+00  1.226E-03  4.427E-03 -8.226E-05\n',
               '-   1    4   70     1    70    1.5978E+01  4.3442E-03   '
               '1.5974E+01  0.000E+00  0.000E+00  0.000E+00  1.22192E+02  '
               '3.042E+00  5.452E+00  1.226E-03  4.423E-03 -7.900E-05\n',
               '-   1    4   71     1    71    1.5974E+01  4.3433E-03   '
               '1.5969E+01  0.000E+00  0.000E+00  0.000E+00  1.21892E+02  '
               '3.042E+00  5.452E+00  1.226E-03  4.418E-03 -7.467E-05\n',
               '-   1    4   72     1    72    1.5969E+01  4.3423E-03   '
               '1.5965E+01  0.000E+00  0.000E+00  0.000E+00  1.21591E+02  '
               '3.041E+00  5.451E+00  1.226E-03  4.413E-03 -7.041E-05\n',
               '-   1    4   73     1    73    1.5965E+01  4.3413E-03   '
               '1.5961E+01  0.000E+00  0.000E+00  0.000E+00  1.21291E+02  '
               '3.041E+00  5.451E+00  1.226E-03  4.408E-03 -6.623E-05\n',
               '-   1    4   74     1    74    1.5961E+01  4.3404E-03   '
               '1.5956E+01  0.000E+00  0.000E+00  0.000E+00  1.20990E+02  '
               '3.040E+00  5.450E+00  1.226E-03  4.404E-03 -6.383E-05\n',
               '-   1    4   75     1    75    1.5956E+01  4.3394E-03   '
               '1.5952E+01  0.000E+00  0.000E+00  0.000E+00  1.20690E+02  '
               '3.040E+00  5.450E+00  1.226E-03  4.403E-03 -6.328E-05\n',
               '-   1    4   76     1    76    1.5952E+01  4.3384E-03   '
               '1.5948E+01  0.000E+00  0.000E+00  0.000E+00  1.20390E+02  '
               '3.040E+00  5.449E+00  1.226E-03  4.402E-03 -6.327E-05\n',
               '-   1    4   77     1    77    1.5948E+01  4.3374E-03   '
               '1.5943E+01  0.000E+00  0.000E+00  0.000E+00  1.20089E+02  '
               '3.039E+00  5.449E+00  1.225E-03  4.401E-03 -6.383E-05\n',
               '-   1    4   78     1    78    1.5943E+01  4.3365E-03   '
               '1.5939E+01  0.000E+00  0.000E+00  0.000E+00  1.19789E+02  '
               '3.039E+00  5.448E+00  1.225E-03  4.401E-03 -6.498E-05\n',
               '-   1    4   79     1    79    1.5939E+01  4.3355E-03   '
               '1.5935E+01  0.000E+00  0.000E+00  0.000E+00  1.19488E+02  '
               '3.038E+00  5.448E+00  1.225E-03  4.399E-03 -6.388E-05\n',
               '-   1    4   80     1    80    1.5935E+01  4.3345E-03   '
               '1.5930E+01  0.000E+00  0.000E+00  0.000E+00  1.19188E+02  '
               '3.038E+00  5.447E+00  1.225E-03  4.398E-03 -6.385E-05\n',
               '-   1    4   81     1    81    1.5930E+01  4.3336E-03   '
               '1.5926E+01  0.000E+00  0.000E+00  0.000E+00  1.18887E+02  '
               '3.037E+00  5.447E+00  1.225E-03  4.400E-03 -6.630E-05\n',
               '-   1    4   82     1    82    1.5926E+01  4.3326E-03   '
               '1.5922E+01  0.000E+00  0.000E+00  0.000E+00  1.18587E+02  '
               '3.037E+00  5.446E+00  1.225E-03  4.402E-03 -6.944E-05\n',
               '-   1    4   83     1    83    1.5922E+01  4.3316E-03   '
               '1.5917E+01  0.000E+00  0.000E+00  0.000E+00  1.18287E+02  '
               '3.037E+00  5.446E+00  1.225E-03  4.404E-03 -7.233E-05\n',
               '-   1    4   84     1    84    1.5917E+01  4.3306E-03   '
               '1.5913E+01  0.000E+00  0.000E+00  0.000E+00  1.17986E+02  '
               '3.036E+00  5.445E+00  1.224E-03  4.407E-03 -7.604E-05\n',
               '-   1    4   85     1    85    1.5913E+01  4.3297E-03   '
               '1.5909E+01  0.000E+00  0.000E+00  0.000E+00  1.17686E+02  '
               '3.036E+00  5.445E+00  1.224E-03  4.410E-03 -8.049E-05\n',
               '-   1    4   86     1    86    1.5909E+01  4.3287E-03   '
               '1.5904E+01  0.000E+00  0.000E+00  0.000E+00  1.17385E+02  '
               '3.035E+00  5.444E+00  1.224E-03  4.416E-03 -8.769E-05\n',
               '-   1    4   87     1    87    1.5904E+01  4.3277E-03   '
               '1.5900E+01  0.000E+00  0.000E+00  0.000E+00  1.17085E+02  '
               '3.035E+00  5.444E+00  1.224E-03  4.420E-03 -9.268E-05\n',
               '-   1    4   88     1    88    1.5900E+01  4.3268E-03   '
               '1.5896E+01  0.000E+00  0.000E+00  0.000E+00  1.16785E+02  '
               '3.035E+00  5.443E+00  1.224E-03  4.430E-03 -1.029E-04\n',
               '-   1    4   89     1    89    1.5896E+01  4.3258E-03   '
               '1.5891E+01  0.000E+00  0.000E+00  0.000E+00  1.16484E+02  '
               '3.034E+00  5.443E+00  1.224E-03  4.436E-03 -1.100E-04\n',
               '-   1    4   90     1    90    1.5891E+01  4.3248E-03   '
               '1.5887E+01  0.000E+00  0.000E+00  0.000E+00  1.16184E+02  '
               '3.034E+00  5.442E+00  1.224E-03  4.446E-03 -1.212E-04\n',
               '-   1    4   91     1    91    1.5887E+01  4.3238E-03   '
               '1.5883E+01  0.000E+00  0.000E+00  0.000E+00  1.15883E+02  '
               '3.033E+00  5.442E+00  1.224E-03  4.457E-03 -1.333E-04\n',
               '-   1    4   92     1    92    1.5883E+01  4.3229E-03   '
               '1.5878E+01  0.000E+00  0.000E+00  0.000E+00  1.15583E+02  '
               '3.033E+00  5.441E+00  1.223E-03  4.466E-03 -1.426E-04\n',
               '-   1    4   93     1    93    1.5878E+01  4.3219E-03   '
               '1.5874E+01  0.000E+00  0.000E+00  0.000E+00  1.15283E+02  '
               '3.033E+00  5.441E+00  1.223E-03  4.470E-03 -1.475E-04\n',
               '-   1    4   94     1    94    1.5874E+01  4.3209E-03   '
               '1.5870E+01  0.000E+00  0.000E+00  0.000E+00  1.14982E+02  '
               '3.032E+00  5.440E+00  1.223E-03  4.472E-03 -1.510E-04\n',
               '-   1    4   95     1    95    1.5870E+01  4.3200E-03   '
               '1.5865E+01  0.000E+00  0.000E+00  0.000E+00  1.14682E+02  '
               '3.032E+00  5.440E+00  1.223E-03  4.476E-03 -1.558E-04\n',
               '-   1    4   96     1    96    1.5865E+01  4.3190E-03   '
               '1.5861E+01  0.000E+00  0.000E+00  0.000E+00  1.14381E+02  '
               '3.031E+00  5.439E+00  1.223E-03  4.481E-03 -1.621E-04\n',
               '-   1    4   97     1    97    1.5861E+01  4.3180E-03   '
               '1.5857E+01  0.000E+00  0.000E+00  0.000E+00  1.14081E+02  '
               '3.031E+00  5.439E+00  1.223E-03  4.488E-03 -1.699E-04\n',
               '-   1    4   98     1    98    1.5857E+01  4.3171E-03   '
               '1.5852E+01  0.000E+00  0.000E+00  0.000E+00  1.13781E+02  '
               '3.031E+00  5.438E+00  1.223E-03  4.497E-03 -1.793E-04\n',
               '-   1    4   99     1    99    1.5852E+01  4.3161E-03   '
               '1.5848E+01  0.000E+00  0.000E+00  0.000E+00  1.13480E+02  '
               '3.030E+00  5.438E+00  1.222E-03  4.506E-03 -1.902E-04\n',
               '-   1    4  100     1   100    1.5848E+01  4.3151E-03   '
               '1.5844E+01  0.000E+00  0.000E+00  0.000E+00  1.13180E+02  '
               '3.030E+00  5.437E+00  1.222E-03  4.518E-03 -2.023E-04\n',
               '-\n',
               '-\n',
               '-\n',
               '-1\n',
               '-  VOLUMETRIC BUDGET FOR UNSATURATED ZONE BENEATH STREAMS AT '
               'END OF TIME STEP    30 STRESS PERIOD   9\n',
               '-  '
               '------------------------------------------------------------------------------------------------\n',
               '-\n',
               '-    CUMULATIVE VOLUMES             L**3    RATES FOR THIS '
               'TIME STEP         L**3/T\n',
               '-    ------------------                     '
               '------------------------\n',
               '-\n',
               '-\n',
               '-          STREAM LOSS =     11623023.0000            STREAM '
               'LOSS =            0.4363\n',
               '-    CHANGE IN STORAGE =       793833.6250      CHANGE IN '
               'STORAGE =       -1.9237E-02\n',
               '-       RECHARGE TO GW =     10832092.0000         RECHARGE TO '
               'GW =            0.4556\n',
               '-\n',
               '-             TOTAL IN =     11623023.0000               TOTAL '
               'IN =            0.4556\n',
               '-\n',
               '-            TOTAL OUT =     11625926.0000              TOTAL '
               'OUT =            0.4556\n',
               '-\n',
               '-             IN - OUT =        -2903.0000               IN - '
               'OUT =       -3.5763E-07\n',
               '-\n',
               '-  PERCENT DISCREPANCY =           -0.01      PERCENT '
               'DISCREPANCY =            -0.00\n',
               '-\n',
               '-\n',
               '-\n',
               '-1\n',
               '-  VOLUMETRIC BUDGET FOR ENTIRE MODEL AT END OF TIME STEP   '
               '30, STRESS PERIOD   9\n',
               '-  '
               '------------------------------------------------------------------------------\n',
               '-\n',
               '-     CUMULATIVE VOLUMES      L**3       RATES FOR THIS TIME '
               'STEP      L**3/T\n',
               '-     ------------------                 '
               '------------------------\n',
               '-\n',
               '-           IN:                                      IN:\n',
               '-           ---                                      ---\n',
               '-             STORAGE =     7495281.0000               STORAGE '
               '=           0.1025\n',
               '-       CONSTANT HEAD =           0.0000         CONSTANT HEAD '
               '=           0.0000\n',
               '-     HEAD DEP BOUNDS =           0.0000       HEAD DEP BOUNDS '
               '=           0.0000\n',
               '-      STREAM LEAKAGE =    10832101.0000        STREAM LEAKAGE '
               '=           0.4556\n',
               '-\n',
               '-            TOTAL IN =    18327382.0000              TOTAL IN '
               '=           0.5581\n',
               '-\n',
               '-          OUT:                                     OUT:\n',
               '-          ----                                     ----\n',
               '-             STORAGE =     6628885.0000               STORAGE '
               '=           0.2320\n',
               '-       CONSTANT HEAD =           0.0000         CONSTANT HEAD '
               '=           0.0000\n',
               '-     HEAD DEP BOUNDS =    11698458.0000       HEAD DEP BOUNDS '
               '=           0.3259\n',
               '-      STREAM LEAKAGE =           0.0000        STREAM LEAKAGE '
               '=           0.0000\n',
               '-\n',
               '-           TOTAL OUT =    18327344.0000             TOTAL OUT '
               '=           0.5579\n',
               '-\n',
               '-            IN - OUT =          38.0000              IN - OUT '
               '=       1.5223E-04\n',
               '-\n',
               '- PERCENT DISCREPANCY =           0.00     PERCENT DISCREPANCY '
               '=           0.03\n',
               '-\n',
               '-\n',
               '-\n',
               '-\n',
               '-\n',
               '-\n',
               '-         TIME SUMMARY AT END OF TIME STEP   30 IN STRESS '
               'PERIOD    9\n',
               '-                    SECONDS     MINUTES      HOURS       '
               'DAYS        YEARS\n',
               '-                    '
               '-----------------------------------------------------------\n',
               '-   TIME STEP LENGTH 2.49961E+05  4166.0      69.434      '
               '2.8931     7.92080E-03\n',
               '- STRESS PERIOD TIME 2.59200E+06  43200.      720.00      '
               '30.000     8.21355E-02\n',
               '-         TOTAL TIME 2.33280E+07 3.88800E+05  6480.0      '
               '270.00     0.73922    \n',
               '-1\n',
               '-1\n',
               '-                            STRESS PERIOD NO.   10, LENGTH '
               '=   2592000.    \n',
               '-                            '
               '-----------------------------------------------\n',
               '-\n',
               '-                              NUMBER OF TIME STEPS =    30\n',
               '-\n',
               '-                               MULTIPLIER FOR DELT =     '
               '1.100\n',
               '-\n',
               '-                            INITIAL TIME STEP SIZE =   '
               '15757.40    \n',
               '-\n',
               '- REUSING NON-PARAMETER GHB CELLS FROM LAST STRESS PERIOD\n',
               '-\n',
               '-      7 GHB CELLS\n',
               '- \n',
               '- SOLVING FOR HEAD \n',
               '-\n',
               '- NO OUTPUT CONTROL FOR STRESS PERIOD   10   TIME STEP    1\n',
               '- \n',
               '- SOLVING FOR HEAD \n',
               '-\n',
               '- NO OUTPUT CONTROL FOR STRESS PERIOD   10   TIME STEP    2\n',
               '- \n',
               '- SOLVING FOR HEAD \n',
               '-\n',
               '- NO OUTPUT CONTROL FOR STRESS PERIOD   10   TIME STEP    3\n',
               '- \n',
               '- SOLVING FOR HEAD \n',
               '-\n',
               '- NO OUTPUT CONTROL FOR STRESS PERIOD   10   TIME STEP    4\n',
               '- \n',
               '- SOLVING FOR HEAD \n',
               '-\n',
               '- NO OUTPUT CONTROL FOR STRESS PERIOD   10   TIME STEP    5\n',
               '- \n',
               '- SOLVING FOR HEAD \n',
               '-\n',
               '- NO OUTPUT CONTROL FOR STRESS PERIOD   10   TIME STEP    6\n',
               '- \n',
               '- SOLVING FOR HEAD \n',
               '-\n',
               '- NO OUTPUT CONTROL FOR STRESS PERIOD   10   TIME STEP    7\n',
               '- \n',
               '- SOLVING FOR HEAD \n',
               '-\n',
               '- NO OUTPUT CONTROL FOR STRESS PERIOD   10   TIME STEP    8\n',
               '- \n',
               '- SOLVING FOR HEAD \n',
               '-\n',
               '- NO OUTPUT CONTROL FOR STRESS PERIOD   10   TIME STEP    9\n',
               '- \n',
               '- SOLVING FOR HEAD \n',
               '-\n',
               '- NO OUTPUT CONTROL FOR STRESS PERIOD   10   TIME STEP   10\n',
               '- \n',
               '- SOLVING FOR HEAD \n',
               '-\n',
               '- NO OUTPUT CONTROL FOR STRESS PERIOD   10   TIME STEP   11\n',
               '- \n',
               '- SOLVING FOR HEAD \n',
               '-\n',
               '- NO OUTPUT CONTROL FOR STRESS PERIOD   10   TIME STEP   12\n',
               '- \n',
               '- SOLVING FOR HEAD \n',
               '-\n',
               '- NO OUTPUT CONTROL FOR STRESS PERIOD   10   TIME STEP   13\n',
               '- \n',
               '- SOLVING FOR HEAD \n',
               '-\n',
               '- NO OUTPUT CONTROL FOR STRESS PERIOD   10   TIME STEP   14\n',
               '- \n',
               '- SOLVING FOR HEAD \n',
               '-\n',
               '- NO OUTPUT CONTROL FOR STRESS PERIOD   10   TIME STEP   15\n',
               '- \n',
               '- SOLVING FOR HEAD \n',
               '-\n',
               '- NO OUTPUT CONTROL FOR STRESS PERIOD   10   TIME STEP   16\n',
               '- \n',
               '- SOLVING FOR HEAD \n',
               '-\n',
               '- NO OUTPUT CONTROL FOR STRESS PERIOD   10   TIME STEP   17\n',
               '- \n',
               '- SOLVING FOR HEAD \n',
               '-\n',
               '- NO OUTPUT CONTROL FOR STRESS PERIOD   10   TIME STEP   18\n',
               '- \n',
               '- SOLVING FOR HEAD \n',
               '-\n',
               '- NO OUTPUT CONTROL FOR STRESS PERIOD   10   TIME STEP   19\n',
               '- \n',
               '- SOLVING FOR HEAD \n',
               '-\n',
               '- NO OUTPUT CONTROL FOR STRESS PERIOD   10   TIME STEP   20\n',
               '- \n',
               '- SOLVING FOR HEAD \n',
               '-\n',
               '- NO OUTPUT CONTROL FOR STRESS PERIOD   10   TIME STEP   21\n',
               '- \n',
               '- SOLVING FOR HEAD \n',
               '-\n',
               '- NO OUTPUT CONTROL FOR STRESS PERIOD   10   TIME STEP   22\n',
               '- \n',
               '- SOLVING FOR HEAD \n',
               '-\n',
               '- NO OUTPUT CONTROL FOR STRESS PERIOD   10   TIME STEP   23\n',
               '- \n',
               '- SOLVING FOR HEAD \n',
               '-\n',
               '- NO OUTPUT CONTROL FOR STRESS PERIOD   10   TIME STEP   24\n',
               '- \n',
               '- SOLVING FOR HEAD \n',
               '-\n',
               '- NO OUTPUT CONTROL FOR STRESS PERIOD   10   TIME STEP   25\n',
               '- \n',
               '- SOLVING FOR HEAD \n',
               '-\n',
               '- NO OUTPUT CONTROL FOR STRESS PERIOD   10   TIME STEP   26\n',
               '- \n',
               '- SOLVING FOR HEAD \n',
               '-\n',
               '- NO OUTPUT CONTROL FOR STRESS PERIOD   10   TIME STEP   27\n',
               '- \n',
               '- SOLVING FOR HEAD \n',
               '-\n',
               '- NO OUTPUT CONTROL FOR STRESS PERIOD   10   TIME STEP   28\n',
               '- \n',
               '- SOLVING FOR HEAD \n',
               '-\n',
               '- NO OUTPUT CONTROL FOR STRESS PERIOD   10   TIME STEP   29\n',
               '- \n',
               '- SOLVING FOR HEAD \n',
               '-\n',
               '- OUTPUT CONTROL FOR STRESS PERIOD   10   TIME STEP   30\n',
               '-    PRINT HEAD FOR ALL LAYERS\n',
               '-    PRINT BUDGET\n',
               '-    SAVE BUDGET\n',
               '-\n',
               '-  HEAD DEP BOUNDS   PERIOD   10   STEP  30\n',
               '- BOUNDARY      1   LAYER   1   ROW     1   COL   100   RATE   '
               '-4.569034E-02\n',
               '- BOUNDARY      2   LAYER   1   ROW     2   COL   100   RATE   '
               '-4.576135E-02\n',
               '- BOUNDARY      3   LAYER   1   ROW     3   COL   100   RATE   '
               '-4.555624E-02\n',
               '- BOUNDARY      4   LAYER   1   ROW     4   COL   100   RATE   '
               '-3.527528E-02\n',
               '- BOUNDARY      5   LAYER   1   ROW     5   COL   100   RATE   '
               '-4.555624E-02\n',
               '- BOUNDARY      6   LAYER   1   ROW     6   COL   100   RATE   '
               '-4.576135E-02\n',
               '- BOUNDARY      7   LAYER   1   ROW     7   COL   100   RATE   '
               '-4.569034E-02\n',
               '-\n',
               '-\n',
               '-\n',
               '- STREAM LISTING     PERIOD     10   STEP       30\n',
               '-\n',
               '- LAYER ROW COL. STREAM  RCH.   FLOW INTO    STREAM     FLOW '
               'OUT OF   OVRLND.    DIRECT     STREAM      STREAM      '
               'STREAM     STREAM  STREAMBED   FLOW TO   CHNG. UNSAT. \n',
               '-                SEG.NO.  NO.   STRM. RCH.    LOSS       STRM. '
               'RCH.   RUNOFF     PRECIP       ET         HEAD        '
               'DEPTH      WIDTH  CONDCTNC.   WAT. TAB.\n',
               '-\n',
               '-   1    4    1     1     1    1.1340E+01  3.2801E-03   '
               '1.1337E+01  0.000E+00  0.000E+00  0.000E+00  1.42414E+02  '
               '2.564E+00  4.880E+00  1.070E-03  3.713E-03 -4.334E-04\n',
               '-   1    4    2     1     2    1.1337E+01  3.2793E-03   '
               '1.1333E+01  0.000E+00  0.000E+00  0.000E+00  1.42114E+02  '
               '2.564E+00  4.880E+00  1.070E-03  3.705E-03 -4.257E-04\n',
               '-   1    4    3     1     3    1.1333E+01  3.2785E-03   '
               '1.1330E+01  0.000E+00  0.000E+00  0.000E+00  1.41813E+02  '
               '2.563E+00  4.879E+00  1.070E-03  3.696E-03 -4.179E-04\n',
               '-   1    4    4     1     4    1.1330E+01  3.2778E-03   '
               '1.1327E+01  0.000E+00  0.000E+00  0.000E+00  1.41513E+02  '
               '2.563E+00  4.879E+00  1.070E-03  3.688E-03 -4.102E-04\n',
               '-   1    4    5     1     5    1.1327E+01  3.2770E-03   '
               '1.1324E+01  0.000E+00  0.000E+00  0.000E+00  1.41213E+02  '
               '2.563E+00  4.879E+00  1.070E-03  3.679E-03 -4.024E-04\n',
               '-   1    4    6     1     6    1.1324E+01  3.2762E-03   '
               '1.1320E+01  0.000E+00  0.000E+00  0.000E+00  1.40912E+02  '
               '2.562E+00  4.878E+00  1.070E-03  3.671E-03 -3.947E-04\n',
               '-   1    4    7     1     7    1.1320E+01  3.2755E-03   '
               '1.1317E+01  0.000E+00  0.000E+00  0.000E+00  1.40612E+02  '
               '2.562E+00  4.878E+00  1.070E-03  3.662E-03 -3.867E-04\n',
               '-   1    4    8     1     8    1.1317E+01  3.2747E-03   '
               '1.1314E+01  0.000E+00  0.000E+00  0.000E+00  1.40312E+02  '
               '2.562E+00  4.877E+00  1.070E-03  3.653E-03 -3.787E-04\n',
               '-   1    4    9     1     9    1.1314E+01  3.2739E-03   '
               '1.1311E+01  0.000E+00  0.000E+00  0.000E+00  1.40011E+02  '
               '2.561E+00  4.877E+00  1.069E-03  3.648E-03 -3.744E-04\n',
               '-   1    4   10     1    10    1.1311E+01  3.2731E-03   '
               '1.1307E+01  0.000E+00  0.000E+00  0.000E+00  1.39711E+02  '
               '2.561E+00  4.876E+00  1.069E-03  3.643E-03 -3.702E-04\n',
               '-   1    4   11     1    11    1.1307E+01  3.2724E-03   '
               '1.1304E+01  0.000E+00  0.000E+00  0.000E+00  1.39410E+02  '
               '2.560E+00  4.876E+00  1.069E-03  3.638E-03 -3.659E-04\n',
               '-   1    4   12     1    12    1.1304E+01  3.2716E-03   '
               '1.1301E+01  0.000E+00  0.000E+00  0.000E+00  1.39110E+02  '
               '2.560E+00  4.875E+00  1.069E-03  3.633E-03 -3.617E-04\n',
               '-   1    4   13     1    13    1.1301E+01  3.2708E-03   '
               '1.1297E+01  0.000E+00  0.000E+00  0.000E+00  1.38810E+02  '
               '2.560E+00  4.875E+00  1.069E-03  3.628E-03 -3.574E-04\n',
               '-   1    4   14     1    14    1.1297E+01  3.2701E-03   '
               '1.1294E+01  0.000E+00  0.000E+00  0.000E+00  1.38509E+02  '
               '2.559E+00  4.875E+00  1.069E-03  3.623E-03 -3.531E-04\n',
               '-   1    4   15     1    15    1.1294E+01  3.2693E-03   '
               '1.1291E+01  0.000E+00  0.000E+00  0.000E+00  1.38209E+02  '
               '2.559E+00  4.874E+00  1.069E-03  3.618E-03 -3.488E-04\n',
               '-   1    4   16     1    16    1.1291E+01  3.2685E-03   '
               '1.1288E+01  0.000E+00  0.000E+00  0.000E+00  1.37909E+02  '
               '2.559E+00  4.874E+00  1.069E-03  3.613E-03 -3.444E-04\n',
               '-   1    4   17     1    17    1.1288E+01  3.2678E-03   '
               '1.1284E+01  0.000E+00  0.000E+00  0.000E+00  1.37608E+02  '
               '2.558E+00  4.873E+00  1.068E-03  3.610E-03 -3.419E-04\n',
               '-   1    4   18     1    18    1.1284E+01  3.2670E-03   '
               '1.1281E+01  0.000E+00  0.000E+00  0.000E+00  1.37308E+02  '
               '2.558E+00  4.873E+00  1.068E-03  3.608E-03 -3.411E-04\n',
               '-   1    4   19     1    19    1.1281E+01  3.2662E-03   '
               '1.1278E+01  0.000E+00  0.000E+00  0.000E+00  1.37007E+02  '
               '2.557E+00  4.872E+00  1.068E-03  3.604E-03 -3.374E-04\n',
               '-   1    4   20     1    20    1.1278E+01  3.2654E-03   '
               '1.1275E+01  0.000E+00  0.000E+00  0.000E+00  1.36707E+02  '
               '2.557E+00  4.872E+00  1.068E-03  3.598E-03 -3.325E-04\n',
               '-   1    4   21     1    21    1.1275E+01  3.2647E-03   '
               '1.1271E+01  0.000E+00  0.000E+00  0.000E+00  1.36407E+02  '
               '2.557E+00  4.871E+00  1.068E-03  3.592E-03 -3.277E-04\n',
               '-   1    4   22     1    22    1.1271E+01  3.2639E-03   '
               '1.1268E+01  0.000E+00  0.000E+00  0.000E+00  1.36106E+02  '
               '2.556E+00  4.871E+00  1.068E-03  3.587E-03 -3.228E-04\n',
               '-   1    4   23     1    23    1.1268E+01  3.2631E-03   '
               '1.1265E+01  0.000E+00  0.000E+00  0.000E+00  1.35806E+02  '
               '2.556E+00  4.871E+00  1.068E-03  3.581E-03 -3.179E-04\n',
               '-   1    4   24     1    24    1.1265E+01  3.2624E-03   '
               '1.1262E+01  0.000E+00  0.000E+00  0.000E+00  1.35506E+02  '
               '2.556E+00  4.870E+00  1.068E-03  3.575E-03 -3.129E-04\n',
               '-   1    4   25     1    25    1.1262E+01  3.2616E-03   '
               '1.1258E+01  0.000E+00  0.000E+00  0.000E+00  1.35205E+02  '
               '2.555E+00  4.870E+00  1.067E-03  3.570E-03 -3.086E-04\n',
               '-   1    4   26     1    26    1.1258E+01  3.2608E-03   '
               '1.1255E+01  0.000E+00  0.000E+00  0.000E+00  1.34905E+02  '
               '2.555E+00  4.869E+00  1.067E-03  3.560E-03 -2.994E-04\n',
               '-   1    4   27     1    27    1.1255E+01  3.2601E-03   '
               '1.1252E+01  0.000E+00  0.000E+00  0.000E+00  1.34604E+02  '
               '2.554E+00  4.869E+00  1.067E-03  3.550E-03 -2.901E-04\n',
               '-   1    4   28     1    28    1.1252E+01  3.2593E-03   '
               '1.1248E+01  0.000E+00  0.000E+00  0.000E+00  1.34304E+02  '
               '2.554E+00  4.868E+00  1.067E-03  3.543E-03 -2.837E-04\n',
               '-   1    4   29     1    29    1.1248E+01  3.2585E-03   '
               '1.1245E+01  0.000E+00  0.000E+00  0.000E+00  1.34004E+02  '
               '2.554E+00  4.868E+00  1.067E-03  3.537E-03 -2.783E-04\n',
               '-   1    4   30     1    30    1.1245E+01  3.2578E-03   '
               '1.1242E+01  0.000E+00  0.000E+00  0.000E+00  1.33703E+02  '
               '2.553E+00  4.867E+00  1.067E-03  3.531E-03 -2.730E-04\n',
               '-   1    4   31     1    31    1.1242E+01  3.2570E-03   '
               '1.1239E+01  0.000E+00  0.000E+00  0.000E+00  1.33403E+02  '
               '2.553E+00  4.867E+00  1.067E-03  3.526E-03 -2.693E-04\n',
               '-   1    4   32     1    32    1.1239E+01  3.2562E-03   '
               '1.1235E+01  0.000E+00  0.000E+00  0.000E+00  1.33103E+02  '
               '2.553E+00  4.867E+00  1.067E-03  3.520E-03 -2.639E-04\n',
               '-   1    4   33     1    33    1.1235E+01  3.2555E-03   '
               '1.1232E+01  0.000E+00  0.000E+00  0.000E+00  1.32802E+02  '
               '2.552E+00  4.866E+00  1.067E-03  3.514E-03 -2.584E-04\n',
               '-   1    4   34     1    34    1.1232E+01  3.2547E-03   '
               '1.1229E+01  0.000E+00  0.000E+00  0.000E+00  1.32502E+02  '
               '2.552E+00  4.866E+00  1.066E-03  3.508E-03 -2.529E-04\n',
               '-   1    4   35     1    35    1.1229E+01  3.2539E-03   '
               '1.1226E+01  0.000E+00  0.000E+00  0.000E+00  1.32201E+02  '
               '2.551E+00  4.865E+00  1.066E-03  3.501E-03 -2.474E-04\n',
               '-   1    4   36     1    36    1.1226E+01  3.2532E-03   '
               '1.1222E+01  0.000E+00  0.000E+00  0.000E+00  1.31901E+02  '
               '2.551E+00  4.865E+00  1.066E-03  3.495E-03 -2.419E-04\n',
               '-   1    4   37     1    37    1.1222E+01  3.2524E-03   '
               '1.1219E+01  0.000E+00  0.000E+00  0.000E+00  1.31601E+02  '
               '2.551E+00  4.864E+00  1.066E-03  3.489E-03 -2.363E-04\n',
               '-   1    4   38     1    38    1.1219E+01  3.2516E-03   '
               '1.1216E+01  0.000E+00  0.000E+00  0.000E+00  1.31300E+02  '
               '2.550E+00  4.864E+00  1.066E-03  3.482E-03 -2.306E-04\n',
               '-   1    4   39     1    39    1.1216E+01  3.2509E-03   '
               '1.1213E+01  0.000E+00  0.000E+00  0.000E+00  1.31000E+02  '
               '2.550E+00  4.863E+00  1.066E-03  3.477E-03 -2.265E-04\n',
               '-   1    4   40     1    40    1.1213E+01  3.2501E-03   '
               '1.1209E+01  0.000E+00  0.000E+00  0.000E+00  1.30700E+02  '
               '2.550E+00  4.863E+00  1.066E-03  3.475E-03 -2.248E-04\n',
               '-   1    4   41     1    41    1.1209E+01  3.2493E-03   '
               '1.1206E+01  0.000E+00  0.000E+00  0.000E+00  1.30399E+02  '
               '2.549E+00  4.863E+00  1.066E-03  3.472E-03 -2.231E-04\n',
               '-   1    4   42     1    42    1.1206E+01  3.2486E-03   '
               '1.1203E+01  0.000E+00  0.000E+00  0.000E+00  1.30099E+02  '
               '2.549E+00  4.862E+00  1.065E-03  3.470E-03 -2.214E-04\n',
               '-   1    4   43     1    43    1.1203E+01  3.2478E-03   '
               '1.1200E+01  0.000E+00  0.000E+00  0.000E+00  1.29799E+02  '
               '2.549E+00  4.862E+00  1.065E-03  3.467E-03 -2.195E-04\n',
               '-   1    4   44     1    44    1.1200E+01  3.2470E-03   '
               '1.1196E+01  0.000E+00  0.000E+00  0.000E+00  1.29498E+02  '
               '2.548E+00  4.861E+00  1.065E-03  3.463E-03 -2.164E-04\n',
               '-   1    4   45     1    45    1.1196E+01  3.2463E-03   '
               '1.1193E+01  0.000E+00  0.000E+00  0.000E+00  1.29198E+02  '
               '2.548E+00  4.861E+00  1.065E-03  3.457E-03 -2.103E-04\n',
               '-   1    4   46     1    46    1.1193E+01  3.2455E-03   '
               '1.1190E+01  0.000E+00  0.000E+00  0.000E+00  1.28897E+02  '
               '2.547E+00  4.860E+00  1.065E-03  3.450E-03 -2.042E-04\n',
               '-   1    4   47     1    47    1.1190E+01  3.2447E-03   '
               '1.1187E+01  0.000E+00  0.000E+00  0.000E+00  1.28597E+02  '
               '2.547E+00  4.860E+00  1.065E-03  3.443E-03 -1.981E-04\n',
               '-   1    4   48     1    48    1.1187E+01  3.2440E-03   '
               '1.1183E+01  0.000E+00  0.000E+00  0.000E+00  1.28297E+02  '
               '2.547E+00  4.859E+00  1.065E-03  3.435E-03 -1.907E-04\n',
               '-   1    4   49     1    49    1.1183E+01  3.2432E-03   '
               '1.1180E+01  0.000E+00  0.000E+00  0.000E+00  1.27996E+02  '
               '2.546E+00  4.859E+00  1.065E-03  3.424E-03 -1.812E-04\n',
               '-   1    4   50     1    50    1.1180E+01  3.2424E-03   '
               '1.1177E+01  0.000E+00  0.000E+00  0.000E+00  1.27696E+02  '
               '2.546E+00  4.859E+00  1.064E-03  3.414E-03 -1.720E-04\n',
               '-   1    4   51     1    51    1.1177E+01  3.2417E-03   '
               '1.1174E+01  0.000E+00  0.000E+00  0.000E+00  1.27396E+02  '
               '2.546E+00  4.858E+00  1.064E-03  3.405E-03 -1.630E-04\n',
               '-   1    4   52     1    52    1.1174E+01  3.2409E-03   '
               '1.1170E+01  0.000E+00  0.000E+00  0.000E+00  1.27095E+02  '
               '2.545E+00  4.858E+00  1.064E-03  3.395E-03 -1.544E-04\n',
               '-   1    4   53     1    53    1.1170E+01  3.2401E-03   '
               '1.1167E+01  0.000E+00  0.000E+00  0.000E+00  1.26795E+02  '
               '2.545E+00  4.857E+00  1.064E-03  3.389E-03 -1.493E-04\n',
               '-   1    4   54     1    54    1.1167E+01  3.2394E-03   '
               '1.1164E+01  0.000E+00  0.000E+00  0.000E+00  1.26494E+02  '
               '2.544E+00  4.857E+00  1.064E-03  3.386E-03 -1.466E-04\n',
               '-   1    4   55     1    55    1.1164E+01  3.2386E-03   '
               '1.1161E+01  0.000E+00  0.000E+00  0.000E+00  1.26194E+02  '
               '2.544E+00  4.856E+00  1.064E-03  3.383E-03 -1.439E-04\n',
               '-   1    4   56     1    56    1.1161E+01  3.2379E-03   '
               '1.1158E+01  0.000E+00  0.000E+00  0.000E+00  1.25894E+02  '
               '2.544E+00  4.856E+00  1.064E-03  3.379E-03 -1.411E-04\n',
               '-   1    4   57     1    57    1.1158E+01  3.2371E-03   '
               '1.1154E+01  0.000E+00  0.000E+00  0.000E+00  1.25593E+02  '
               '2.543E+00  4.855E+00  1.064E-03  3.375E-03 -1.382E-04\n',
               '-   1    4   58     1    58    1.1154E+01  3.2363E-03   '
               '1.1151E+01  0.000E+00  0.000E+00  0.000E+00  1.25293E+02  '
               '2.543E+00  4.855E+00  1.063E-03  3.372E-03 -1.353E-04\n',
               '-   1    4   59     1    59    1.1151E+01  3.2356E-03   '
               '1.1148E+01  0.000E+00  0.000E+00  0.000E+00  1.24993E+02  '
               '2.543E+00  4.855E+00  1.063E-03  3.368E-03 -1.323E-04\n',
               '-   1    4   60     1    60    1.1148E+01  3.2348E-03   '
               '1.1145E+01  0.000E+00  0.000E+00  0.000E+00  1.24692E+02  '
               '2.542E+00  4.854E+00  1.063E-03  3.364E-03 -1.292E-04\n',
               '-   1    4   61     1    61    1.1145E+01  3.2340E-03   '
               '1.1141E+01  0.000E+00  0.000E+00  0.000E+00  1.24392E+02  '
               '2.542E+00  4.854E+00  1.063E-03  3.360E-03 -1.261E-04\n',
               '-   1    4   62     1    62    1.1141E+01  3.2333E-03   '
               '1.1138E+01  0.000E+00  0.000E+00  0.000E+00  1.24091E+02  '
               '2.541E+00  4.853E+00  1.063E-03  3.356E-03 -1.229E-04\n',
               '-   1    4   63     1    63    1.1138E+01  3.2325E-03   '
               '1.1135E+01  0.000E+00  0.000E+00  0.000E+00  1.23791E+02  '
               '2.541E+00  4.853E+00  1.063E-03  3.352E-03 -1.197E-04\n',
               '-   1    4   64     1    64    1.1135E+01  3.2317E-03   '
               '1.1132E+01  0.000E+00  0.000E+00  0.000E+00  1.23491E+02  '
               '2.541E+00  4.852E+00  1.063E-03  3.348E-03 -1.165E-04\n',
               '-   1    4   65     1    65    1.1132E+01  3.2310E-03   '
               '1.1128E+01  0.000E+00  0.000E+00  0.000E+00  1.23190E+02  '
               '2.540E+00  4.852E+00  1.063E-03  3.344E-03 -1.133E-04\n',
               '-   1    4   66     1    66    1.1128E+01  3.2302E-03   '
               '1.1125E+01  0.000E+00  0.000E+00  0.000E+00  1.22890E+02  '
               '2.540E+00  4.851E+00  1.063E-03  3.340E-03 -1.100E-04\n',
               '-   1    4   67     1    67    1.1125E+01  3.2295E-03   '
               '1.1122E+01  0.000E+00  0.000E+00  0.000E+00  1.22590E+02  '
               '2.540E+00  4.851E+00  1.062E-03  3.336E-03 -1.068E-04\n',
               '-   1    4   68     1    68    1.1122E+01  3.2287E-03   '
               '1.1119E+01  0.000E+00  0.000E+00  0.000E+00  1.22289E+02  '
               '2.539E+00  4.851E+00  1.062E-03  3.332E-03 -1.035E-04\n',
               '-   1    4   69     1    69    1.1119E+01  3.2279E-03   '
               '1.1116E+01  0.000E+00  0.000E+00  0.000E+00  1.21989E+02  '
               '2.539E+00  4.850E+00  1.062E-03  3.328E-03 -1.003E-04\n',
               '-   1    4   70     1    70    1.1116E+01  3.2272E-03   '
               '1.1112E+01  0.000E+00  0.000E+00  0.000E+00  1.21688E+02  '
               '2.538E+00  4.850E+00  1.062E-03  3.324E-03 -9.712E-05\n',
               '-   1    4   71     1    71    1.1112E+01  3.2264E-03   '
               '1.1109E+01  0.000E+00  0.000E+00  0.000E+00  1.21388E+02  '
               '2.538E+00  4.849E+00  1.062E-03  3.320E-03 -9.398E-05\n',
               '-   1    4   72     1    72    1.1109E+01  3.2256E-03   '
               '1.1106E+01  0.000E+00  0.000E+00  0.000E+00  1.21088E+02  '
               '2.538E+00  4.849E+00  1.062E-03  3.318E-03 -9.242E-05\n',
               '-   1    4   73     1    73    1.1106E+01  3.2249E-03   '
               '1.1103E+01  0.000E+00  0.000E+00  0.000E+00  1.20787E+02  '
               '2.537E+00  4.848E+00  1.062E-03  3.319E-03 -9.364E-05\n',
               '-   1    4   74     1    74    1.1103E+01  3.2241E-03   '
               '1.1099E+01  0.000E+00  0.000E+00  0.000E+00  1.20487E+02  '
               '2.537E+00  4.848E+00  1.062E-03  3.320E-03 -9.548E-05\n',
               '-   1    4   75     1    75    1.1099E+01  3.2234E-03   '
               '1.1096E+01  0.000E+00  0.000E+00  0.000E+00  1.20187E+02  '
               '2.537E+00  4.847E+00  1.061E-03  3.319E-03 -9.582E-05\n',
               '-   1    4   76     1    76    1.1096E+01  3.2226E-03   '
               '1.1093E+01  0.000E+00  0.000E+00  0.000E+00  1.19886E+02  '
               '2.536E+00  4.847E+00  1.061E-03  3.317E-03 -9.479E-05\n',
               '-   1    4   77     1    77    1.1093E+01  3.2218E-03   '
               '1.1090E+01  0.000E+00  0.000E+00  0.000E+00  1.19586E+02  '
               '2.536E+00  4.847E+00  1.061E-03  3.319E-03 -9.734E-05\n',
               '-   1    4   78     1    78    1.1090E+01  3.2211E-03   '
               '1.1086E+01  0.000E+00  0.000E+00  0.000E+00  1.19286E+02  '
               '2.536E+00  4.846E+00  1.061E-03  3.322E-03 -1.006E-04\n',
               '-   1    4   79     1    79    1.1086E+01  3.2203E-03   '
               '1.1083E+01  0.000E+00  0.000E+00  0.000E+00  1.18985E+02  '
               '2.535E+00  4.846E+00  1.061E-03  3.325E-03 -1.047E-04\n',
               '-   1    4   80     1    80    1.1083E+01  3.2196E-03   '
               '1.1080E+01  0.000E+00  0.000E+00  0.000E+00  1.18685E+02  '
               '2.535E+00  4.845E+00  1.061E-03  3.329E-03 -1.095E-04\n',
               '-   1    4   81     1    81    1.1080E+01  3.2188E-03   '
               '1.1077E+01  0.000E+00  0.000E+00  0.000E+00  1.18384E+02  '
               '2.534E+00  4.845E+00  1.061E-03  3.328E-03 -1.094E-04\n',
               '-   1    4   82     1    82    1.1077E+01  3.2180E-03   '
               '1.1074E+01  0.000E+00  0.000E+00  0.000E+00  1.18084E+02  '
               '2.534E+00  4.844E+00  1.061E-03  3.326E-03 -1.075E-04\n',
               '-   1    4   83     1    83    1.1074E+01  3.2173E-03   '
               '1.1070E+01  0.000E+00  0.000E+00  0.000E+00  1.17784E+02  '
               '2.534E+00  4.844E+00  1.060E-03  3.332E-03 -1.150E-04\n',
               '-   1    4   84     1    84    1.1070E+01  3.2165E-03   '
               '1.1067E+01  0.000E+00  0.000E+00  0.000E+00  1.17483E+02  '
               '2.533E+00  4.843E+00  1.060E-03  3.347E-03 -1.300E-04\n',
               '-   1    4   85     1    85    1.1067E+01  3.2158E-03   '
               '1.1064E+01  0.000E+00  0.000E+00  0.000E+00  1.17183E+02  '
               '2.533E+00  4.843E+00  1.060E-03  3.354E-03 -1.386E-04\n',
               '-   1    4   86     1    86    1.1064E+01  3.2150E-03   '
               '1.1061E+01  0.000E+00  0.000E+00  0.000E+00  1.16883E+02  '
               '2.533E+00  4.843E+00  1.060E-03  3.363E-03 -1.482E-04\n',
               '-   1    4   87     1    87    1.1061E+01  3.2142E-03   '
               '1.1058E+01  0.000E+00  0.000E+00  0.000E+00  1.16582E+02  '
               '2.532E+00  4.842E+00  1.060E-03  3.362E-03 -1.482E-04\n',
               '-   1    4   88     1    88    1.1058E+01  3.2135E-03   '
               '1.1054E+01  0.000E+00  0.000E+00  0.000E+00  1.16282E+02  '
               '2.532E+00  4.842E+00  1.060E-03  3.370E-03 -1.564E-04\n',
               '-   1    4   89     1    89    1.1054E+01  3.2127E-03   '
               '1.1051E+01  0.000E+00  0.000E+00  0.000E+00  1.15981E+02  '
               '2.531E+00  4.841E+00  1.060E-03  3.395E-03 -1.821E-04\n',
               '-   1    4   90     1    90    1.1051E+01  3.2120E-03   '
               '1.1048E+01  0.000E+00  0.000E+00  0.000E+00  1.15681E+02  '
               '2.531E+00  4.841E+00  1.060E-03  3.409E-03 -1.973E-04\n',
               '-   1    4   91     1    91    1.1048E+01  3.2112E-03   '
               '1.1045E+01  0.000E+00  0.000E+00  0.000E+00  1.15381E+02  '
               '2.531E+00  4.840E+00  1.059E-03  3.415E-03 -2.038E-04\n',
               '-   1    4   92     1    92    1.1045E+01  3.2104E-03   '
               '1.1041E+01  0.000E+00  0.000E+00  0.000E+00  1.15080E+02  '
               '2.530E+00  4.840E+00  1.059E-03  3.429E-03 -2.183E-04\n',
               '-   1    4   93     1    93    1.1041E+01  3.2097E-03   '
               '1.1038E+01  0.000E+00  0.000E+00  0.000E+00  1.14780E+02  '
               '2.530E+00  4.839E+00  1.059E-03  3.458E-03 -2.480E-04\n',
               '-   1    4   94     1    94    1.1038E+01  3.2089E-03   '
               '1.1035E+01  0.000E+00  0.000E+00  0.000E+00  1.14480E+02  '
               '2.530E+00  4.839E+00  1.059E-03  3.476E-03 -2.670E-04\n',
               '-   1    4   95     1    95    1.1035E+01  3.2082E-03   '
               '1.1032E+01  0.000E+00  0.000E+00  0.000E+00  1.14179E+02  '
               '2.529E+00  4.839E+00  1.059E-03  3.492E-03 -2.841E-04\n',
               '-   1    4   96     1    96    1.1032E+01  3.2074E-03   '
               '1.1029E+01  0.000E+00  0.000E+00  0.000E+00  1.13879E+02  '
               '2.529E+00  4.838E+00  1.059E-03  3.523E-03 -3.154E-04\n',
               '-   1    4   97     1    97    1.1029E+01  3.2067E-03   '
               '1.1025E+01  0.000E+00  0.000E+00  0.000E+00  1.13578E+02  '
               '2.528E+00  4.838E+00  1.059E-03  3.549E-03 -3.427E-04\n',
               '-   1    4   98     1    98    1.1025E+01  3.2059E-03   '
               '1.1022E+01  0.000E+00  0.000E+00  0.000E+00  1.13278E+02  '
               '2.528E+00  4.837E+00  1.059E-03  3.575E-03 -3.694E-04\n',
               '-   1    4   99     1    99    1.1022E+01  3.2051E-03   '
               '1.1019E+01  0.000E+00  0.000E+00  0.000E+00  1.12978E+02  '
               '2.528E+00  4.837E+00  1.059E-03  3.611E-03 -4.063E-04\n',
               '-   1    4  100     1   100    1.1019E+01  3.2044E-03   '
               '1.1016E+01  0.000E+00  0.000E+00  0.000E+00  1.12677E+02  '
               '2.527E+00  4.836E+00  1.058E-03  3.643E-03 -4.388E-04\n',
               '-\n',
               '-\n',
               '-\n',
               '-1\n',
               '-  VOLUMETRIC BUDGET FOR UNSATURATED ZONE BENEATH STREAMS AT '
               'END OF TIME STEP    30 STRESS PERIOD  10\n',
               '-  '
               '------------------------------------------------------------------------------------------------\n',
               '-\n',
               '-    CUMULATIVE VOLUMES             L**3    RATES FOR THIS '
               'TIME STEP         L**3/T\n',
               '-    ------------------                     '
               '------------------------\n',
               '-\n',
               '-\n',
               '-          STREAM LOSS =     12463376.0000            STREAM '
               'LOSS =            0.3242\n',
               '-    CHANGE IN STORAGE =       658564.5625      CHANGE IN '
               'STORAGE =       -2.3036E-02\n',
               '-       RECHARGE TO GW =     11807698.0000         RECHARGE TO '
               'GW =            0.3472\n',
               '-\n',
               '-             TOTAL IN =     12463376.0000               TOTAL '
               'IN =            0.3472\n',
               '-\n',
               '-            TOTAL OUT =     12466263.0000              TOTAL '
               'OUT =            0.3472\n',
               '-\n',
               '-             IN - OUT =        -2887.0000               IN - '
               'OUT =        1.4305E-06\n',
               '-\n',
               '-  PERCENT DISCREPANCY =           -0.01      PERCENT '
               'DISCREPANCY =             0.00\n',
               '-\n',
               '-\n',
               '-\n',
               '-1\n',
               '-              HEAD IN LAYER   1 AT END OF TIME STEP  30 IN '
               'STRESS PERIOD   10\n',
               '-  '
               '---------------------------------------------------------------------------\n',
               '-\n',
               '-          1      2      3      4      5      6      7      '
               '8      9     10\n',
               '-         11     12     13     14     15     16     17     '
               '18     19     20\n',
               '-         21     22     23     24     25     26     27     '
               '28     29     30\n',
               '-         31     32     33     34     35     36     37     '
               '38     39     40\n',
               '-         41     42     43     44     45     46     47     '
               '48     49     50\n',
               '-         51     52     53     54     55     56     57     '
               '58     59     60\n',
               '-         61     62     63     64     65     66     67     '
               '68     69     70\n',
               '-         71     72     73     74     75     76     77     '
               '78     79     80\n',
               '-         81     82     83     84     85     86     87     '
               '88     89     90\n',
               '-         91     92     93     94     95     96     97     '
               '98     99    100\n',
               '- '
               '.........................................................................\n',
               '-   1   108.9  108.9  108.9  108.9  108.9  108.9  108.9  '
               '108.9  108.9  108.9\n',
               '-       108.9  108.9  108.9  108.9  108.9  108.9  108.9  '
               '108.9  108.9  108.9\n',
               '-       108.9  108.9  108.9  108.9  108.9  108.9  108.9  '
               '108.9  108.9  108.9\n',
               '-       108.8  108.8  108.8  108.8  108.8  108.8  108.8  '
               '108.7  108.7  108.7\n',
               '-       108.6  108.6  108.6  108.5  108.5  108.4  108.4  '
               '108.3  108.2  108.1\n',
               '-       108.0  107.9  107.8  107.7  107.6  107.4  107.3  '
               '107.1  107.0  106.8\n',
               '-       106.6  106.3  106.1  105.8  105.6  105.3  104.9  '
               '104.6  104.2  103.9\n',
               '-       103.4  103.0  102.5  102.0  101.5  101.0  100.4   '
               '99.8   99.1   98.4\n',
               '-        97.7   96.9   96.1   95.3   94.4   93.4   92.5   '
               '91.4   90.4   89.2\n',
               '-        88.1   86.8   85.5   84.2   82.8   81.4   79.9   '
               '78.3   76.7   75.0\n',
               '-   2   108.9  108.9  108.9  108.9  108.9  108.9  108.9  '
               '108.9  108.9  108.9\n',
               '-       108.9  108.9  108.9  108.9  108.9  108.9  108.9  '
               '108.9  108.9  108.9\n',
               '-       108.9  108.9  108.9  108.9  108.9  108.9  108.9  '
               '108.9  108.9  108.9\n',
               '-       108.8  108.8  108.8  108.8  108.8  108.8  108.8  '
               '108.7  108.7  108.7\n',
               '-       108.6  108.6  108.6  108.5  108.5  108.4  108.4  '
               '108.3  108.2  108.1\n',
               '-       108.0  107.9  107.8  107.7  107.6  107.4  107.3  '
               '107.1  107.0  106.8\n',
               '-       106.6  106.3  106.1  105.8  105.6  105.3  104.9  '
               '104.6  104.2  103.9\n',
               '-       103.4  103.0  102.5  102.0  101.5  101.0  100.4   '
               '99.8   99.1   98.4\n',
               '-        97.7   96.9   96.1   95.3   94.4   93.4   92.5   '
               '91.4   90.4   89.2\n',
               '-        88.1   86.8   85.6   84.2   82.8   81.4   79.9   '
               '78.3   76.7   75.0\n',
               '-   3   108.9  108.9  108.9  108.9  108.9  108.9  108.9  '
               '108.9  108.9  108.9\n',
               '-       108.9  108.9  108.9  108.9  108.9  108.9  108.9  '
               '108.9  108.9  108.9\n',
               '-       108.9  108.9  108.9  108.9  108.9  108.9  108.9  '
               '108.9  108.9  108.9\n',
               '-       108.9  108.8  108.8  108.8  108.8  108.8  108.8  '
               '108.7  108.7  108.7\n',
               '-       108.7  108.6  108.6  108.5  108.5  108.4  108.4  '
               '108.3  108.2  108.1\n',
               '-       108.0  107.9  107.8  107.7  107.6  107.5  107.3  '
               '107.1  107.0  106.8\n',
               '-       106.6  106.3  106.1  105.8  105.6  105.3  104.9  '
               '104.6  104.2  103.9\n',
               '-       103.4  103.0  102.5  102.1  101.5  101.0  100.4   '
               '99.8   99.1   98.4\n',
               '-        97.7   96.9   96.1   95.3   94.4   93.4   92.5   '
               '91.4   90.4   89.2\n',
               '-        88.1   86.8   85.6   84.2   82.8   81.4   79.9   '
               '78.3   76.7   75.0\n',
               '-   4   108.9  108.9  108.9  108.9  108.9  108.9  108.9  '
               '108.9  108.9  108.9\n',
               '-       108.9  108.9  108.9  108.9  108.9  108.9  108.9  '
               '108.9  108.9  108.9\n',
               '-       108.9  108.9  108.9  108.9  108.9  108.9  108.9  '
               '108.9  108.9  108.9\n',
               '-       108.9  108.8  108.8  108.8  108.8  108.8  108.8  '
               '108.7  108.7  108.7\n',
               '-       108.7  108.6  108.6  108.5  108.5  108.4  108.4  '
               '108.3  108.2  108.1\n',
               '-       108.1  108.0  107.8  107.7  107.6  107.5  107.3  '
               '107.1  107.0  106.8\n',
               '-       106.6  106.3  106.1  105.8  105.6  105.3  105.0  '
               '104.6  104.3  103.9\n',
               '-       103.5  103.0  102.6  102.1  101.5  101.0  100.4   '
               '99.8   99.1   98.4\n',
               '-        97.7   96.9   96.1   95.3   94.4   93.5   92.5   '
               '91.4   90.4   89.2\n',
               '-        88.1   86.8   85.6   84.2   82.8   81.4   79.9   '
               '78.3   76.7   75.0\n',
               '-   5   108.9  108.9  108.9  108.9  108.9  108.9  108.9  '
               '108.9  108.9  108.9\n',
               '-       108.9  108.9  108.9  108.9  108.9  108.9  108.9  '
               '108.9  108.9  108.9\n',
               '-       108.9  108.9  108.9  108.9  108.9  108.9  108.9  '
               '108.9  108.9  108.9\n',
               '-       108.9  108.8  108.8  108.8  108.8  108.8  108.8  '
               '108.7  108.7  108.7\n',
               '-       108.7  108.6  108.6  108.5  108.5  108.4  108.4  '
               '108.3  108.2  108.1\n',
               '-       108.0  107.9  107.8  107.7  107.6  107.5  107.3  '
               '107.1  107.0  106.8\n',
               '-       106.6  106.3  106.1  105.8  105.6  105.3  104.9  '
               '104.6  104.2  103.9\n',
               '-       103.4  103.0  102.5  102.1  101.5  101.0  100.4   '
               '99.8   99.1   98.4\n',
               '-        97.7   96.9   96.1   95.3   94.4   93.4   92.5   '
               '91.4   90.4   89.2\n',
               '-        88.1   86.8   85.6   84.2   82.8   81.4   79.9   '
               '78.3   76.7   75.0\n',
               '-   6   108.9  108.9  108.9  108.9  108.9  108.9  108.9  '
               '108.9  108.9  108.9\n',
               '-       108.9  108.9  108.9  108.9  108.9  108.9  108.9  '
               '108.9  108.9  108.9\n',
               '-       108.9  108.9  108.9  108.9  108.9  108.9  108.9  '
               '108.9  108.9  108.9\n',
               '-       108.8  108.8  108.8  108.8  108.8  108.8  108.8  '
               '108.7  108.7  108.7\n',
               '-       108.6  108.6  108.6  108.5  108.5  108.4  108.4  '
               '108.3  108.2  108.1\n',
               '-       108.0  107.9  107.8  107.7  107.6  107.4  107.3  '
               '107.1  107.0  106.8\n',
               '-       106.6  106.3  106.1  105.8  105.6  105.3  104.9  '
               '104.6  104.2  103.9\n',
               '-       103.4  103.0  102.5  102.0  101.5  101.0  100.4   '
               '99.8   99.1   98.4\n',
               '-        97.7   96.9   96.1   95.3   94.4   93.4   92.5   '
               '91.4   90.4   89.2\n',
               '-        88.1   86.8   85.6   84.2   82.8   81.4   79.9   '
               '78.3   76.7   75.0\n',
               '-   7   108.9  108.9  108.9  108.9  108.9  108.9  108.9  '
               '108.9  108.9  108.9\n',
               '-       108.9  108.9  108.9  108.9  108.9  108.9  108.9  '
               '108.9  108.9  108.9\n',
               '-       108.9  108.9  108.9  108.9  108.9  108.9  108.9  '
               '108.9  108.9  108.9\n',
               '-       108.8  108.8  108.8  108.8  108.8  108.8  108.8  '
               '108.7  108.7  108.7\n',
               '-       108.6  108.6  108.6  108.5  108.5  108.4  108.4  '
               '108.3  108.2  108.1\n',
               '-       108.0  107.9  107.8  107.7  107.6  107.4  107.3  '
               '107.1  107.0  106.8\n',
               '-       106.6  106.3  106.1  105.8  105.6  105.3  104.9  '
               '104.6  104.2  103.9\n',
               '-       103.4  103.0  102.5  102.0  101.5  101.0  100.4   '
               '99.8   99.1   98.4\n',
               '-        97.7   96.9   96.1   95.3   94.4   93.4   92.5   '
               '91.4   90.4   89.2\n',
               '-        88.1   86.8   85.5   84.2   82.8   81.4   79.9   '
               '78.3   76.7   75.0\n',
               '-1\n',
               '-  VOLUMETRIC BUDGET FOR ENTIRE MODEL AT END OF TIME STEP   '
               '30, STRESS PERIOD  10\n',
               '-  '
               '------------------------------------------------------------------------------\n',
               '-\n',
               '-     CUMULATIVE VOLUMES      L**3       RATES FOR THIS TIME '
               'STEP      L**3/T\n',
               '-     ------------------                 '
               '------------------------\n',
               '-\n',
               '-           IN:                                      IN:\n',
               '-           ---                                      ---\n',
               '-             STORAGE =     7808946.0000               STORAGE '
               '=           0.1217\n',
               '-       CONSTANT HEAD =           0.0000         CONSTANT HEAD '
               '=           0.0000\n',
               '-     HEAD DEP BOUNDS =           0.0000       HEAD DEP BOUNDS '
               '=           0.0000\n',
               '-      STREAM LEAKAGE =    11807750.0000        STREAM LEAKAGE '
               '=           0.3472\n',
               '-\n',
               '-            TOTAL IN =    19616696.0000              TOTAL IN '
               '=           0.4689\n',
               '-\n',
               '-          OUT:                                     OUT:\n',
               '-          ----                                     ----\n',
               '-             STORAGE =     7096816.0000               STORAGE '
               '=           0.1595\n',
               '-       CONSTANT HEAD =           0.0000         CONSTANT HEAD '
               '=           0.0000\n',
               '-     HEAD DEP BOUNDS =    12519827.0000       HEAD DEP BOUNDS '
               '=           0.3093\n',
               '-      STREAM LEAKAGE =           0.0000        STREAM LEAKAGE '
               '=           0.0000\n',
               '-\n',
               '-           TOTAL OUT =    19616644.0000             TOTAL OUT '
               '=           0.4688\n',
               '-\n',
               '-            IN - OUT =          52.0000              IN - OUT '
               '=       1.3652E-04\n',
               '-\n',
               '- PERCENT DISCREPANCY =           0.00     PERCENT DISCREPANCY '
               '=           0.03\n',
               '-\n',
               '-\n',
               '-\n',
               '-\n',
               '-\n',
               '-\n',
               '-         TIME SUMMARY AT END OF TIME STEP   30 IN STRESS '
               'PERIOD   10\n',
               '-                    SECONDS     MINUTES      HOURS       '
               'DAYS        YEARS\n',
               '-                    '
               '-----------------------------------------------------------\n',
               '-   TIME STEP LENGTH 2.49961E+05  4166.0      69.434      '
               '2.8931     7.92080E-03\n',
               '- STRESS PERIOD TIME 2.59200E+06  43200.      720.00      '
               '30.000     8.21355E-02\n',
               '-         TOTAL TIME 2.59200E+07 4.32000E+05  7200.0      '
               '300.00     0.82136    \n',
               '-1\n',
               '-1\n',
               '-                            STRESS PERIOD NO.   11, LENGTH '
               '=   2592000.    \n',
               '-                            '
               '-----------------------------------------------\n',
               '-\n',
               '-                              NUMBER OF TIME STEPS =    30\n',
               '-\n',
               '-                               MULTIPLIER FOR DELT =     '
               '1.100\n',
               '-\n',
               '-                            INITIAL TIME STEP SIZE =   '
               '15757.40    \n',
               '-\n',
               '- REUSING NON-PARAMETER GHB CELLS FROM LAST STRESS PERIOD\n',
               '-\n',
               '-      7 GHB CELLS\n',
               '- \n',
               '- SOLVING FOR HEAD \n',
               '-\n',
               '- NO OUTPUT CONTROL FOR STRESS PERIOD   11   TIME STEP    1\n',
               '- \n',
               '- SOLVING FOR HEAD \n',
               '-\n',
               '- NO OUTPUT CONTROL FOR STRESS PERIOD   11   TIME STEP    2\n',
               '- \n',
               '- SOLVING FOR HEAD \n',
               '-\n',
               '- NO OUTPUT CONTROL FOR STRESS PERIOD   11   TIME STEP    3\n',
               '- \n',
               '- SOLVING FOR HEAD \n',
               '-\n',
               '- NO OUTPUT CONTROL FOR STRESS PERIOD   11   TIME STEP    4\n',
               '- \n',
               '- SOLVING FOR HEAD \n',
               '-\n',
               '- NO OUTPUT CONTROL FOR STRESS PERIOD   11   TIME STEP    5\n',
               '- \n',
               '- SOLVING FOR HEAD \n',
               '-\n',
               '- NO OUTPUT CONTROL FOR STRESS PERIOD   11   TIME STEP    6\n',
               '- \n',
               '- SOLVING FOR HEAD \n',
               '-\n',
               '- NO OUTPUT CONTROL FOR STRESS PERIOD   11   TIME STEP    7\n',
               '- \n',
               '- SOLVING FOR HEAD \n',
               '-\n',
               '- NO OUTPUT CONTROL FOR STRESS PERIOD   11   TIME STEP    8\n',
               '- \n',
               '- SOLVING FOR HEAD \n',
               '-\n',
               '- NO OUTPUT CONTROL FOR STRESS PERIOD   11   TIME STEP    9\n',
               '- \n',
               '- SOLVING FOR HEAD \n',
               '-\n',
               '- NO OUTPUT CONTROL FOR STRESS PERIOD   11   TIME STEP   10\n',
               '- \n',
               '- SOLVING FOR HEAD \n',
               '-\n',
               '- NO OUTPUT CONTROL FOR STRESS PERIOD   11   TIME STEP   11\n',
               '- \n',
               '- SOLVING FOR HEAD \n',
               '-\n',
               '- NO OUTPUT CONTROL FOR STRESS PERIOD   11   TIME STEP   12\n',
               '- \n',
               '- SOLVING FOR HEAD \n',
               '-\n',
               '- NO OUTPUT CONTROL FOR STRESS PERIOD   11   TIME STEP   13\n',
               '- \n',
               '- SOLVING FOR HEAD \n',
               '-\n',
               '- NO OUTPUT CONTROL FOR STRESS PERIOD   11   TIME STEP   14\n',
               '- \n',
               '- SOLVING FOR HEAD \n',
               '-\n',
               '- NO OUTPUT CONTROL FOR STRESS PERIOD   11   TIME STEP   15\n',
               '- \n',
               '- SOLVING FOR HEAD \n',
               '-\n',
               '- NO OUTPUT CONTROL FOR STRESS PERIOD   11   TIME STEP   16\n',
               '- \n',
               '- SOLVING FOR HEAD \n',
               '-\n',
               '- NO OUTPUT CONTROL FOR STRESS PERIOD   11   TIME STEP   17\n',
               '- \n',
               '- SOLVING FOR HEAD \n',
               '-\n',
               '- NO OUTPUT CONTROL FOR STRESS PERIOD   11   TIME STEP   18\n',
               '- \n',
               '- SOLVING FOR HEAD \n',
               '-\n',
               '- NO OUTPUT CONTROL FOR STRESS PERIOD   11   TIME STEP   19\n',
               '- \n',
               '- SOLVING FOR HEAD \n',
               '-\n',
               '- NO OUTPUT CONTROL FOR STRESS PERIOD   11   TIME STEP   20\n',
               '- \n',
               '- SOLVING FOR HEAD \n',
               '-\n',
               '- NO OUTPUT CONTROL FOR STRESS PERIOD   11   TIME STEP   21\n',
               '- \n',
               '- SOLVING FOR HEAD \n',
               '-\n',
               '- NO OUTPUT CONTROL FOR STRESS PERIOD   11   TIME STEP   22\n',
               '- \n',
               '- SOLVING FOR HEAD \n',
               '-\n',
               '- NO OUTPUT CONTROL FOR STRESS PERIOD   11   TIME STEP   23\n',
               '- \n',
               '- SOLVING FOR HEAD \n',
               '-\n',
               '- NO OUTPUT CONTROL FOR STRESS PERIOD   11   TIME STEP   24\n',
               '- \n',
               '- SOLVING FOR HEAD \n',
               '-\n',
               '- NO OUTPUT CONTROL FOR STRESS PERIOD   11   TIME STEP   25\n',
               '- \n',
               '- SOLVING FOR HEAD \n',
               '-\n',
               '- NO OUTPUT CONTROL FOR STRESS PERIOD   11   TIME STEP   26\n',
               '- \n',
               '- SOLVING FOR HEAD \n',
               '-\n',
               '- NO OUTPUT CONTROL FOR STRESS PERIOD   11   TIME STEP   27\n',
               '- \n',
               '- SOLVING FOR HEAD \n',
               '-\n',
               '- NO OUTPUT CONTROL FOR STRESS PERIOD   11   TIME STEP   28\n',
               '- \n',
               '- SOLVING FOR HEAD \n',
               '-\n',
               '- NO OUTPUT CONTROL FOR STRESS PERIOD   11   TIME STEP   29\n',
               '- \n',
               '- SOLVING FOR HEAD \n',
               '-\n',
               '- NO OUTPUT CONTROL FOR STRESS PERIOD   11   TIME STEP   30\n',
               '-\n',
               '-\n',
               '-\n',
               '- STREAM LISTING     PERIOD     11   STEP       30\n',
               '-\n',
               '- LAYER ROW COL. STREAM  RCH.   FLOW INTO    STREAM     FLOW '
               'OUT OF   OVRLND.    DIRECT     STREAM      STREAM      '
               'STREAM     STREAM  STREAMBED   FLOW TO   CHNG. UNSAT. \n',
               '-                SEG.NO.  NO.   STRM. RCH.    LOSS       STRM. '
               'RCH.   RUNOFF     PRECIP       ET         HEAD        '
               'DEPTH      WIDTH  CONDCTNC.   WAT. TAB.\n',
               '-\n',
               '-   1    4    1     1     1    3.3840E+00  1.2832E-03   '
               '3.3827E+00  0.000E+00  0.000E+00  0.000E+00  1.41228E+02  '
               '1.378E+00  3.461E+00  6.832E-04  1.586E-03 -3.023E-04\n',
               '-   1    4    2     1     2    3.3827E+00  1.2828E-03   '
               '3.3814E+00  0.000E+00  0.000E+00  0.000E+00  1.40927E+02  '
               '1.377E+00  3.460E+00  6.831E-04  1.575E-03 -2.924E-04\n',
               '-   1    4    3     1     3    3.3814E+00  1.2825E-03   '
               '3.3802E+00  0.000E+00  0.000E+00  0.000E+00  1.40627E+02  '
               '1.377E+00  3.460E+00  6.830E-04  1.565E-03 -2.824E-04\n',
               '-   1    4    4     1     4    3.3802E+00  1.2821E-03   '
               '3.3789E+00  0.000E+00  0.000E+00  0.000E+00  1.40327E+02  '
               '1.377E+00  3.460E+00  6.829E-04  1.555E-03 -2.725E-04\n',
               '-   1    4    5     1     5    3.3789E+00  1.2818E-03   '
               '3.3776E+00  0.000E+00  0.000E+00  0.000E+00  1.40027E+02  '
               '1.377E+00  3.460E+00  6.828E-04  1.545E-03 -2.630E-04\n',
               '-   1    4    6     1     6    3.3776E+00  1.2814E-03   '
               '3.3763E+00  0.000E+00  0.000E+00  0.000E+00  1.39726E+02  '
               '1.376E+00  3.459E+00  6.828E-04  1.539E-03 -2.580E-04\n',
               '-   1    4    7     1     7    3.3763E+00  1.2811E-03   '
               '3.3750E+00  0.000E+00  0.000E+00  0.000E+00  1.39426E+02  '
               '1.376E+00  3.459E+00  6.827E-04  1.534E-03 -2.530E-04\n',
               '-   1    4    8     1     8    3.3750E+00  1.2807E-03   '
               '3.3738E+00  0.000E+00  0.000E+00  0.000E+00  1.39126E+02  '
               '1.376E+00  3.459E+00  6.826E-04  1.529E-03 -2.481E-04\n',
               '-   1    4    9     1     9    3.3738E+00  1.2803E-03   '
               '3.3725E+00  0.000E+00  0.000E+00  0.000E+00  1.38826E+02  '
               '1.376E+00  3.458E+00  6.825E-04  1.525E-03 -2.445E-04\n',
               '-   1    4   10     1    10    3.3725E+00  1.2800E-03   '
               '3.3712E+00  0.000E+00  0.000E+00  0.000E+00  1.38525E+02  '
               '1.375E+00  3.458E+00  6.824E-04  1.524E-03 -2.442E-04\n',
               '-   1    4   11     1    11    3.3712E+00  1.2796E-03   '
               '3.3699E+00  0.000E+00  0.000E+00  0.000E+00  1.38225E+02  '
               '1.375E+00  3.458E+00  6.823E-04  1.523E-03 -2.438E-04\n',
               '-   1    4   12     1    12    3.3699E+00  1.2793E-03   '
               '3.3686E+00  0.000E+00  0.000E+00  0.000E+00  1.37925E+02  '
               '1.375E+00  3.457E+00  6.822E-04  1.523E-03 -2.434E-04\n',
               '-   1    4   13     1    13    3.3686E+00  1.2789E-03   '
               '3.3674E+00  0.000E+00  0.000E+00  0.000E+00  1.37624E+02  '
               '1.374E+00  3.457E+00  6.821E-04  1.522E-03 -2.430E-04\n',
               '-   1    4   14     1    14    3.3674E+00  1.2786E-03   '
               '3.3661E+00  0.000E+00  0.000E+00  0.000E+00  1.37324E+02  '
               '1.374E+00  3.457E+00  6.821E-04  1.521E-03 -2.426E-04\n',
               '-   1    4   15     1    15    3.3661E+00  1.2782E-03   '
               '3.3648E+00  0.000E+00  0.000E+00  0.000E+00  1.37024E+02  '
               '1.374E+00  3.456E+00  6.820E-04  1.520E-03 -2.421E-04\n',
               '-   1    4   16     1    16    3.3648E+00  1.2779E-03   '
               '3.3635E+00  0.000E+00  0.000E+00  0.000E+00  1.36724E+02  '
               '1.374E+00  3.456E+00  6.819E-04  1.520E-03 -2.416E-04\n',
               '-   1    4   17     1    17    3.3635E+00  1.2775E-03   '
               '3.3622E+00  0.000E+00  0.000E+00  0.000E+00  1.36423E+02  '
               '1.373E+00  3.456E+00  6.818E-04  1.519E-03 -2.411E-04\n',
               '-   1    4   18     1    18    3.3622E+00  1.2772E-03   '
               '3.3610E+00  0.000E+00  0.000E+00  0.000E+00  1.36123E+02  '
               '1.373E+00  3.455E+00  6.817E-04  1.518E-03 -2.406E-04\n',
               '-   1    4   19     1    19    3.3610E+00  1.2768E-03   '
               '3.3597E+00  0.000E+00  0.000E+00  0.000E+00  1.35823E+02  '
               '1.373E+00  3.455E+00  6.816E-04  1.517E-03 -2.401E-04\n',
               '-   1    4   20     1    20    3.3597E+00  1.2765E-03   '
               '3.3584E+00  0.000E+00  0.000E+00  0.000E+00  1.35523E+02  '
               '1.373E+00  3.455E+00  6.815E-04  1.516E-03 -2.395E-04\n',
               '-   1    4   21     1    21    3.3584E+00  1.2761E-03   '
               '3.3571E+00  0.000E+00  0.000E+00  0.000E+00  1.35222E+02  '
               '1.372E+00  3.454E+00  6.814E-04  1.515E-03 -2.389E-04\n',
               '-   1    4   22     1    22    3.3571E+00  1.2758E-03   '
               '3.3559E+00  0.000E+00  0.000E+00  0.000E+00  1.34922E+02  '
               '1.372E+00  3.454E+00  6.813E-04  1.512E-03 -2.367E-04\n',
               '-   1    4   23     1    23    3.3559E+00  1.2754E-03   '
               '3.3546E+00  0.000E+00  0.000E+00  0.000E+00  1.34622E+02  '
               '1.372E+00  3.454E+00  6.813E-04  1.505E-03 -2.297E-04\n',
               '-   1    4   24     1    24    3.3546E+00  1.2751E-03   '
               '3.3533E+00  0.000E+00  0.000E+00  0.000E+00  1.34321E+02  '
               '1.371E+00  3.453E+00  6.812E-04  1.494E-03 -2.188E-04\n',
               '-   1    4   25     1    25    3.3533E+00  1.2747E-03   '
               '3.3520E+00  0.000E+00  0.000E+00  0.000E+00  1.34021E+02  '
               '1.371E+00  3.453E+00  6.811E-04  1.483E-03 -2.080E-04\n',
               '-   1    4   26     1    26    3.3520E+00  1.2744E-03   '
               '3.3508E+00  0.000E+00  0.000E+00  0.000E+00  1.33721E+02  '
               '1.371E+00  3.453E+00  6.810E-04  1.472E-03 -1.972E-04\n',
               '-   1    4   27     1    27    3.3508E+00  1.2740E-03   '
               '3.3495E+00  0.000E+00  0.000E+00  0.000E+00  1.33421E+02  '
               '1.371E+00  3.452E+00  6.809E-04  1.461E-03 -1.867E-04\n',
               '-   1    4   28     1    28    3.3495E+00  1.2737E-03   '
               '3.3482E+00  0.000E+00  0.000E+00  0.000E+00  1.33120E+02  '
               '1.370E+00  3.452E+00  6.808E-04  1.455E-03 -1.815E-04\n',
               '-   1    4   29     1    29    3.3482E+00  1.2733E-03   '
               '3.3469E+00  0.000E+00  0.000E+00  0.000E+00  1.32820E+02  '
               '1.370E+00  3.452E+00  6.807E-04  1.450E-03 -1.763E-04\n',
               '-   1    4   30     1    30    3.3469E+00  1.2730E-03   '
               '3.3457E+00  0.000E+00  0.000E+00  0.000E+00  1.32520E+02  '
               '1.370E+00  3.451E+00  6.806E-04  1.444E-03 -1.714E-04\n',
               '-   1    4   31     1    31    3.3457E+00  1.2726E-03   '
               '3.3444E+00  0.000E+00  0.000E+00  0.000E+00  1.32220E+02  '
               '1.370E+00  3.451E+00  6.806E-04  1.443E-03 -1.706E-04\n',
               '-   1    4   32     1    32    3.3444E+00  1.2723E-03   '
               '3.3431E+00  0.000E+00  0.000E+00  0.000E+00  1.31919E+02  '
               '1.369E+00  3.451E+00  6.805E-04  1.442E-03 -1.697E-04\n',
               '-   1    4   33     1    33    3.3431E+00  1.2719E-03   '
               '3.3418E+00  0.000E+00  0.000E+00  0.000E+00  1.31619E+02  '
               '1.369E+00  3.450E+00  6.804E-04  1.441E-03 -1.689E-04\n',
               '-   1    4   34     1    34    3.3418E+00  1.2716E-03   '
               '3.3406E+00  0.000E+00  0.000E+00  0.000E+00  1.31319E+02  '
               '1.369E+00  3.450E+00  6.803E-04  1.440E-03 -1.679E-04\n',
               '-   1    4   35     1    35    3.3406E+00  1.2713E-03   '
               '3.3393E+00  0.000E+00  0.000E+00  0.000E+00  1.31018E+02  '
               '1.368E+00  3.450E+00  6.802E-04  1.438E-03 -1.670E-04\n',
               '-   1    4   36     1    36    3.3393E+00  1.2709E-03   '
               '3.3380E+00  0.000E+00  0.000E+00  0.000E+00  1.30718E+02  '
               '1.368E+00  3.449E+00  6.801E-04  1.436E-03 -1.647E-04\n',
               '-   1    4   37     1    37    3.3380E+00  1.2706E-03   '
               '3.3368E+00  0.000E+00  0.000E+00  0.000E+00  1.30418E+02  '
               '1.368E+00  3.449E+00  6.800E-04  1.430E-03 -1.592E-04\n',
               '-   1    4   38     1    38    3.3368E+00  1.2702E-03   '
               '3.3355E+00  0.000E+00  0.000E+00  0.000E+00  1.30118E+02  '
               '1.368E+00  3.449E+00  6.799E-04  1.424E-03 -1.536E-04\n',
               '-   1    4   39     1    39    3.3355E+00  1.2699E-03   '
               '3.3342E+00  0.000E+00  0.000E+00  0.000E+00  1.29817E+02  '
               '1.367E+00  3.449E+00  6.798E-04  1.418E-03 -1.486E-04\n',
               '-   1    4   40     1    40    3.3342E+00  1.2695E-03   '
               '3.3330E+00  0.000E+00  0.000E+00  0.000E+00  1.29517E+02  '
               '1.367E+00  3.448E+00  6.798E-04  1.417E-03 -1.475E-04\n',
               '-   1    4   41     1    41    3.3330E+00  1.2692E-03   '
               '3.3317E+00  0.000E+00  0.000E+00  0.000E+00  1.29217E+02  '
               '1.367E+00  3.448E+00  6.797E-04  1.415E-03 -1.463E-04\n',
               '-   1    4   42     1    42    3.3317E+00  1.2688E-03   '
               '3.3304E+00  0.000E+00  0.000E+00  0.000E+00  1.28917E+02  '
               '1.367E+00  3.448E+00  6.796E-04  1.414E-03 -1.450E-04\n',
               '-   1    4   43     1    43    3.3304E+00  1.2685E-03   '
               '3.3291E+00  0.000E+00  0.000E+00  0.000E+00  1.28616E+02  '
               '1.366E+00  3.447E+00  6.795E-04  1.412E-03 -1.437E-04\n',
               '-   1    4   44     1    44    3.3291E+00  1.2681E-03   '
               '3.3279E+00  0.000E+00  0.000E+00  0.000E+00  1.28316E+02  '
               '1.366E+00  3.447E+00  6.794E-04  1.410E-03 -1.423E-04\n',
               '-   1    4   45     1    45    3.3279E+00  1.2678E-03   '
               '3.3266E+00  0.000E+00  0.000E+00  0.000E+00  1.28016E+02  '
               '1.366E+00  3.447E+00  6.793E-04  1.409E-03 -1.409E-04\n',
               '-   1    4   46     1    46    3.3266E+00  1.2674E-03   '
               '3.3253E+00  0.000E+00  0.000E+00  0.000E+00  1.27716E+02  '
               '1.366E+00  3.446E+00  6.792E-04  1.406E-03 -1.381E-04\n',
               '-   1    4   47     1    47    3.3253E+00  1.2671E-03   '
               '3.3241E+00  0.000E+00  0.000E+00  0.000E+00  1.27415E+02  '
               '1.365E+00  3.446E+00  6.791E-04  1.399E-03 -1.320E-04\n',
               '-   1    4   48     1    48    3.3241E+00  1.2667E-03   '
               '3.3228E+00  0.000E+00  0.000E+00  0.000E+00  1.27115E+02  '
               '1.365E+00  3.446E+00  6.791E-04  1.393E-03 -1.259E-04\n',
               '-   1    4   49     1    49    3.3228E+00  1.2664E-03   '
               '3.3215E+00  0.000E+00  0.000E+00  0.000E+00  1.26815E+02  '
               '1.365E+00  3.445E+00  6.790E-04  1.385E-03 -1.191E-04\n',
               '-   1    4   50     1    50    3.3215E+00  1.2660E-03   '
               '3.3203E+00  0.000E+00  0.000E+00  0.000E+00  1.26514E+02  '
               '1.364E+00  3.445E+00  6.789E-04  1.376E-03 -1.102E-04\n',
               '-   1    4   51     1    51    3.3203E+00  1.2657E-03   '
               '3.3190E+00  0.000E+00  0.000E+00  0.000E+00  1.26214E+02  '
               '1.364E+00  3.445E+00  6.788E-04  1.371E-03 -1.053E-04\n',
               '-   1    4   52     1    52    3.3190E+00  1.2653E-03   '
               '3.3177E+00  0.000E+00  0.000E+00  0.000E+00  1.25914E+02  '
               '1.364E+00  3.444E+00  6.787E-04  1.366E-03 -1.005E-04\n',
               '-   1    4   53     1    53    3.3177E+00  1.2650E-03   '
               '3.3165E+00  0.000E+00  0.000E+00  0.000E+00  1.25614E+02  '
               '1.364E+00  3.444E+00  6.786E-04  1.361E-03 -9.587E-05\n',
               '-   1    4   54     1    54    3.3165E+00  1.2646E-03   '
               '3.3152E+00  0.000E+00  0.000E+00  0.000E+00  1.25313E+02  '
               '1.363E+00  3.444E+00  6.785E-04  1.356E-03 -9.135E-05\n',
               '-   1    4   55     1    55    3.3152E+00  1.2643E-03   '
               '3.3140E+00  0.000E+00  0.000E+00  0.000E+00  1.25013E+02  '
               '1.363E+00  3.443E+00  6.784E-04  1.351E-03 -8.696E-05\n',
               '-   1    4   56     1    56    3.3140E+00  1.2639E-03   '
               '3.3127E+00  0.000E+00  0.000E+00  0.000E+00  1.24713E+02  '
               '1.363E+00  3.443E+00  6.783E-04  1.347E-03 -8.272E-05\n',
               '-   1    4   57     1    57    3.3127E+00  1.2636E-03   '
               '3.3114E+00  0.000E+00  0.000E+00  0.000E+00  1.24413E+02  '
               '1.363E+00  3.443E+00  6.783E-04  1.342E-03 -7.865E-05\n',
               '-   1    4   58     1    58    3.3114E+00  1.2632E-03   '
               '3.3102E+00  0.000E+00  0.000E+00  0.000E+00  1.24112E+02  '
               '1.362E+00  3.442E+00  6.782E-04  1.338E-03 -7.476E-05\n',
               '-   1    4   59     1    59    3.3102E+00  1.2629E-03   '
               '3.3089E+00  0.000E+00  0.000E+00  0.000E+00  1.23812E+02  '
               '1.362E+00  3.442E+00  6.781E-04  1.334E-03 -7.107E-05\n',
               '-   1    4   60     1    60    3.3089E+00  1.2626E-03   '
               '3.3076E+00  0.000E+00  0.000E+00  0.000E+00  1.23512E+02  '
               '1.362E+00  3.442E+00  6.780E-04  1.331E-03 -6.817E-05\n',
               '-   1    4   61     1    61    3.3076E+00  1.2622E-03   '
               '3.3064E+00  0.000E+00  0.000E+00  0.000E+00  1.23211E+02  '
               '1.361E+00  3.441E+00  6.779E-04  1.328E-03 -6.610E-05\n',
               '-   1    4   62     1    62    3.3064E+00  1.2619E-03   '
               '3.3051E+00  0.000E+00  0.000E+00  0.000E+00  1.22911E+02  '
               '1.361E+00  3.441E+00  6.778E-04  1.326E-03 -6.401E-05\n',
               '-   1    4   63     1    63    3.3051E+00  1.2615E-03   '
               '3.3039E+00  0.000E+00  0.000E+00  0.000E+00  1.22611E+02  '
               '1.361E+00  3.441E+00  6.777E-04  1.323E-03 -6.191E-05\n',
               '-   1    4   64     1    64    3.3039E+00  1.2612E-03   '
               '3.3026E+00  0.000E+00  0.000E+00  0.000E+00  1.22311E+02  '
               '1.361E+00  3.440E+00  6.776E-04  1.321E-03 -5.980E-05\n',
               '-   1    4   65     1    65    3.3026E+00  1.2608E-03   '
               '3.3013E+00  0.000E+00  0.000E+00  0.000E+00  1.22010E+02  '
               '1.360E+00  3.440E+00  6.776E-04  1.319E-03 -5.769E-05\n',
               '-   1    4   66     1    66    3.3013E+00  1.2605E-03   '
               '3.3001E+00  0.000E+00  0.000E+00  0.000E+00  1.21710E+02  '
               '1.360E+00  3.440E+00  6.775E-04  1.316E-03 -5.559E-05\n',
               '-   1    4   67     1    67    3.3001E+00  1.2601E-03   '
               '3.2988E+00  0.000E+00  0.000E+00  0.000E+00  1.21410E+02  '
               '1.360E+00  3.439E+00  6.774E-04  1.314E-03 -5.350E-05\n',
               '-   1    4   68     1    68    3.2988E+00  1.2598E-03   '
               '3.2976E+00  0.000E+00  0.000E+00  0.000E+00  1.21110E+02  '
               '1.360E+00  3.439E+00  6.773E-04  1.311E-03 -5.142E-05\n',
               '-   1    4   69     1    69    3.2976E+00  1.2594E-03   '
               '3.2963E+00  0.000E+00  0.000E+00  0.000E+00  1.20809E+02  '
               '1.359E+00  3.439E+00  6.772E-04  1.309E-03 -4.978E-05\n',
               '-   1    4   70     1    70    3.2963E+00  1.2591E-03   '
               '3.2950E+00  0.000E+00  0.000E+00  0.000E+00  1.20509E+02  '
               '1.359E+00  3.438E+00  6.771E-04  1.309E-03 -4.968E-05\n',
               '-   1    4   71     1    71    3.2950E+00  1.2587E-03   '
               '3.2938E+00  0.000E+00  0.000E+00  0.000E+00  1.20209E+02  '
               '1.359E+00  3.438E+00  6.770E-04  1.309E-03 -5.004E-05\n',
               '-   1    4   72     1    72    3.2938E+00  1.2584E-03   '
               '3.2925E+00  0.000E+00  0.000E+00  0.000E+00  1.19909E+02  '
               '1.359E+00  3.438E+00  6.769E-04  1.309E-03 -5.089E-05\n',
               '-   1    4   73     1    73    3.2925E+00  1.2581E-03   '
               '3.2913E+00  0.000E+00  0.000E+00  0.000E+00  1.19608E+02  '
               '1.358E+00  3.438E+00  6.768E-04  1.310E-03 -5.225E-05\n',
               '-   1    4   74     1    74    3.2913E+00  1.2577E-03   '
               '3.2900E+00  0.000E+00  0.000E+00  0.000E+00  1.19308E+02  '
               '1.358E+00  3.437E+00  6.768E-04  1.312E-03 -5.414E-05\n',
               '-   1    4   75     1    75    3.2900E+00  1.2574E-03   '
               '3.2887E+00  0.000E+00  0.000E+00  0.000E+00  1.19008E+02  '
               '1.358E+00  3.437E+00  6.767E-04  1.314E-03 -5.662E-05\n',
               '-   1    4   76     1    76    3.2887E+00  1.2570E-03   '
               '3.2875E+00  0.000E+00  0.000E+00  0.000E+00  1.18707E+02  '
               '1.357E+00  3.437E+00  6.766E-04  1.322E-03 -6.521E-05\n',
               '-   1    4   77     1    77    3.2875E+00  1.2567E-03   '
               '3.2862E+00  0.000E+00  0.000E+00  0.000E+00  1.18407E+02  '
               '1.357E+00  3.436E+00  6.765E-04  1.330E-03 -7.370E-05\n',
               '-   1    4   78     1    78    3.2862E+00  1.2563E-03   '
               '3.2850E+00  0.000E+00  0.000E+00  0.000E+00  1.18107E+02  '
               '1.357E+00  3.436E+00  6.764E-04  1.338E-03 -8.162E-05\n',
               '-   1    4   79     1    79    3.2850E+00  1.2560E-03   '
               '3.2837E+00  0.000E+00  0.000E+00  0.000E+00  1.17807E+02  '
               '1.357E+00  3.436E+00  6.763E-04  1.341E-03 -8.531E-05\n',
               '-   1    4   80     1    80    3.2837E+00  1.2556E-03   '
               '3.2825E+00  0.000E+00  0.000E+00  0.000E+00  1.17506E+02  '
               '1.356E+00  3.435E+00  6.762E-04  1.340E-03 -8.411E-05\n',
               '-   1    4   81     1    81    3.2825E+00  1.2553E-03   '
               '3.2812E+00  0.000E+00  0.000E+00  0.000E+00  1.17206E+02  '
               '1.356E+00  3.435E+00  6.761E-04  1.338E-03 -8.306E-05\n',
               '-   1    4   82     1    82    3.2812E+00  1.2549E-03   '
               '3.2799E+00  0.000E+00  0.000E+00  0.000E+00  1.16906E+02  '
               '1.356E+00  3.435E+00  6.761E-04  1.337E-03 -8.220E-05\n',
               '-   1    4   83     1    83    3.2799E+00  1.2546E-03   '
               '3.2787E+00  0.000E+00  0.000E+00  0.000E+00  1.16606E+02  '
               '1.356E+00  3.434E+00  6.760E-04  1.336E-03 -8.155E-05\n',
               '-   1    4   84     1    84    3.2787E+00  1.2543E-03   '
               '3.2774E+00  0.000E+00  0.000E+00  0.000E+00  1.16305E+02  '
               '1.355E+00  3.434E+00  6.759E-04  1.335E-03 -8.111E-05\n',
               '-   1    4   85     1    85    3.2774E+00  1.2539E-03   '
               '3.2762E+00  0.000E+00  0.000E+00  0.000E+00  1.16005E+02  '
               '1.355E+00  3.434E+00  6.758E-04  1.335E-03 -8.092E-05\n',
               '-   1    4   86     1    86    3.2762E+00  1.2536E-03   '
               '3.2749E+00  0.000E+00  0.000E+00  0.000E+00  1.15705E+02  '
               '1.355E+00  3.433E+00  6.757E-04  1.335E-03 -8.102E-05\n',
               '-   1    4   87     1    87    3.2749E+00  1.2532E-03   '
               '3.2737E+00  0.000E+00  0.000E+00  0.000E+00  1.15404E+02  '
               '1.354E+00  3.433E+00  6.756E-04  1.356E-03 -1.027E-04\n',
               '-   1    4   88     1    88    3.2737E+00  1.2529E-03   '
               '3.2724E+00  0.000E+00  0.000E+00  0.000E+00  1.15104E+02  '
               '1.354E+00  3.433E+00  6.755E-04  1.388E-03 -1.351E-04\n',
               '-   1    4   89     1    89    3.2724E+00  1.2525E-03   '
               '3.2712E+00  0.000E+00  0.000E+00  0.000E+00  1.14804E+02  '
               '1.354E+00  3.432E+00  6.754E-04  1.401E-03 -1.485E-04\n',
               '-   1    4   90     1    90    3.2712E+00  1.2522E-03   '
               '3.2699E+00  0.000E+00  0.000E+00  0.000E+00  1.14504E+02  '
               '1.354E+00  3.432E+00  6.754E-04  1.405E-03 -1.525E-04\n',
               '-   1    4   91     1    91    3.2699E+00  1.2518E-03   '
               '3.2687E+00  0.000E+00  0.000E+00  0.000E+00  1.14203E+02  '
               '1.353E+00  3.432E+00  6.753E-04  1.407E-03 -1.547E-04\n',
               '-   1    4   92     1    92    3.2687E+00  1.2515E-03   '
               '3.2674E+00  0.000E+00  0.000E+00  0.000E+00  1.13903E+02  '
               '1.353E+00  3.431E+00  6.752E-04  1.409E-03 -1.574E-04\n',
               '-   1    4   93     1    93    3.2674E+00  1.2512E-03   '
               '3.2662E+00  0.000E+00  0.000E+00  0.000E+00  1.13603E+02  '
               '1.353E+00  3.431E+00  6.751E-04  1.413E-03 -1.620E-04\n',
               '-   1    4   94     1    94    3.2662E+00  1.2508E-03   '
               '3.2649E+00  0.000E+00  0.000E+00  0.000E+00  1.13303E+02  '
               '1.353E+00  3.431E+00  6.750E-04  1.449E-03 -1.979E-04\n',
               '-   1    4   95     1    95    3.2649E+00  1.2505E-03   '
               '3.2637E+00  0.000E+00  0.000E+00  0.000E+00  1.13002E+02  '
               '1.352E+00  3.430E+00  6.749E-04  1.470E-03 -2.197E-04\n',
               '-   1    4   96     1    96    3.2637E+00  1.2501E-03   '
               '3.2624E+00  0.000E+00  0.000E+00  0.000E+00  1.12702E+02  '
               '1.352E+00  3.430E+00  6.748E-04  1.492E-03 -2.418E-04\n',
               '-   1    4   97     1    97    3.2624E+00  1.2498E-03   '
               '3.2612E+00  0.000E+00  0.000E+00  0.000E+00  1.12402E+02  '
               '1.352E+00  3.430E+00  6.747E-04  1.514E-03 -2.643E-04\n',
               '-   1    4   98     1    98    3.2612E+00  1.2494E-03   '
               '3.2599E+00  0.000E+00  0.000E+00  0.000E+00  1.12102E+02  '
               '1.352E+00  3.429E+00  6.747E-04  1.527E-03 -2.777E-04\n',
               '-   1    4   99     1    99    3.2599E+00  1.2491E-03   '
               '3.2587E+00  0.000E+00  0.000E+00  0.000E+00  1.11801E+02  '
               '1.351E+00  3.429E+00  6.746E-04  1.563E-03 -3.142E-04\n',
               '-   1    4  100     1   100    3.2587E+00  1.2487E-03   '
               '3.2574E+00  0.000E+00  0.000E+00  0.000E+00  1.11501E+02  '
               '1.351E+00  3.429E+00  6.745E-04  1.583E-03 -3.344E-04\n',
               '-\n',
               '-\n',
               '-\n',
               '-1\n',
               '-  VOLUMETRIC BUDGET FOR UNSATURATED ZONE BENEATH STREAMS AT '
               'END OF TIME STEP    30 STRESS PERIOD  11\n',
               '-  '
               '------------------------------------------------------------------------------------------------\n',
               '-\n',
               '-    CUMULATIVE VOLUMES             L**3    RATES FOR THIS '
               'TIME STEP         L**3/T\n',
               '-    ------------------                     '
               '------------------------\n',
               '-\n',
               '-\n',
               '-          STREAM LOSS =     12791469.0000            STREAM '
               'LOSS =            0.1266\n',
               '-    CHANGE IN STORAGE =       484305.6562      CHANGE IN '
               'STORAGE =       -1.5516E-02\n',
               '-       RECHARGE TO GW =     12310088.0000         RECHARGE TO '
               'GW =            0.1421\n',
               '-\n',
               '-             TOTAL IN =     12791469.0000               TOTAL '
               'IN =            0.1421\n',
               '-\n',
               '-            TOTAL OUT =     12794394.0000              TOTAL '
               'OUT =            0.1421\n',
               '-\n',
               '-             IN - OUT =        -2925.0000               IN - '
               'OUT =        4.4703E-08\n',
               '-\n',
               '-  PERCENT DISCREPANCY =           -0.01      PERCENT '
               'DISCREPANCY =             0.00\n',
               '-\n',
               '-\n',
               '-\n',
               '-1\n',
               '-  VOLUMETRIC BUDGET FOR ENTIRE MODEL AT END OF TIME STEP   '
               '30, STRESS PERIOD  11\n',
               '-  '
               '------------------------------------------------------------------------------\n',
               '-\n',
               '-     CUMULATIVE VOLUMES      L**3       RATES FOR THIS TIME '
               'STEP      L**3/T\n',
               '-     ------------------                 '
               '------------------------\n',
               '-\n',
               '-           IN:                                      IN:\n',
               '-           ---                                      ---\n',
               '-             STORAGE =     8283998.5000               STORAGE '
               '=           0.1954\n',
               '-       CONSTANT HEAD =           0.0000         CONSTANT HEAD '
               '=           0.0000\n',
               '-     HEAD DEP BOUNDS =           0.0000       HEAD DEP BOUNDS '
               '=           0.0000\n',
               '-      STREAM LEAKAGE =    12310138.0000        STREAM LEAKAGE '
               '=           0.1421\n',
               '-\n',
               '-            TOTAL IN =    20594136.0000              TOTAL IN '
               '=           0.3375\n',
               '-\n',
               '-          OUT:                                     OUT:\n',
               '-          ----                                     ----\n',
               '-             STORAGE =     7300582.5000               STORAGE '
               '=       4.9019E-02\n',
               '-       CONSTANT HEAD =           0.0000         CONSTANT HEAD '
               '=           0.0000\n',
               '-     HEAD DEP BOUNDS =    13293502.0000       HEAD DEP BOUNDS '
               '=           0.2884\n',
               '-      STREAM LEAKAGE =           0.0000        STREAM LEAKAGE '
               '=           0.0000\n',
               '-\n',
               '-           TOTAL OUT =    20594084.0000             TOTAL OUT '
               '=           0.3374\n',
               '-\n',
               '-            IN - OUT =          52.0000              IN - OUT '
               '=       5.5432E-05\n',
               '-\n',
               '- PERCENT DISCREPANCY =           0.00     PERCENT DISCREPANCY '
               '=           0.02\n',
               '-\n',
               '-\n',
               '-\n',
               '-\n',
               '-\n',
               '-\n',
               '-         TIME SUMMARY AT END OF TIME STEP   30 IN STRESS '
               'PERIOD   11\n',
               '-                    SECONDS     MINUTES      HOURS       '
               'DAYS        YEARS\n',
               '-                    '
               '-----------------------------------------------------------\n',
               '-   TIME STEP LENGTH 2.49961E+05  4166.0      69.434      '
               '2.8931     7.92080E-03\n',
               '- STRESS PERIOD TIME 2.59200E+06  43200.      720.00      '
               '30.000     8.21355E-02\n',
               '-         TOTAL TIME 2.85120E+07 4.75200E+05  7920.0      '
               '330.00     0.90349    \n',
               '-1\n',
               '-1\n',
               '-                            STRESS PERIOD NO.   12, LENGTH '
               '=   2592000.    \n',
               '-                            '
               '-----------------------------------------------\n',
               '-\n',
               '-                              NUMBER OF TIME STEPS =    30\n',
               '-\n',
               '-                               MULTIPLIER FOR DELT =     '
               '1.100\n',
               '-\n',
               '-                            INITIAL TIME STEP SIZE =   '
               '15757.40    \n',
               '-\n',
               '- REUSING NON-PARAMETER GHB CELLS FROM LAST STRESS PERIOD\n',
               '-\n',
               '-      7 GHB CELLS\n',
               '- \n',
               '- SOLVING FOR HEAD \n',
               '-\n',
               '- NO OUTPUT CONTROL FOR STRESS PERIOD   12   TIME STEP    1\n',
               '- \n',
               '- SOLVING FOR HEAD \n',
               '-\n',
               '- NO OUTPUT CONTROL FOR STRESS PERIOD   12   TIME STEP    2\n',
               '- \n',
               '- SOLVING FOR HEAD \n',
               '-\n',
               '- NO OUTPUT CONTROL FOR STRESS PERIOD   12   TIME STEP    3\n',
               '- \n',
               '- SOLVING FOR HEAD \n',
               '-\n',
               '- NO OUTPUT CONTROL FOR STRESS PERIOD   12   TIME STEP    4\n',
               '- \n',
               '- SOLVING FOR HEAD \n',
               '-\n',
               '- NO OUTPUT CONTROL FOR STRESS PERIOD   12   TIME STEP    5\n',
               '- \n',
               '- SOLVING FOR HEAD \n',
               '-\n',
               '- NO OUTPUT CONTROL FOR STRESS PERIOD   12   TIME STEP    6\n',
               '- \n',
               '- SOLVING FOR HEAD \n',
               '-\n',
               '- NO OUTPUT CONTROL FOR STRESS PERIOD   12   TIME STEP    7\n',
               '- \n',
               '- SOLVING FOR HEAD \n',
               '-\n',
               '- NO OUTPUT CONTROL FOR STRESS PERIOD   12   TIME STEP    8\n',
               '- \n',
               '- SOLVING FOR HEAD \n',
               '-\n',
               '- NO OUTPUT CONTROL FOR STRESS PERIOD   12   TIME STEP    9\n',
               '- \n',
               '- SOLVING FOR HEAD \n',
               '-\n',
               '- NO OUTPUT CONTROL FOR STRESS PERIOD   12   TIME STEP   10\n',
               '- \n',
               '- SOLVING FOR HEAD \n',
               '-\n',
               '- NO OUTPUT CONTROL FOR STRESS PERIOD   12   TIME STEP   11\n',
               '- \n',
               '- SOLVING FOR HEAD \n',
               '-\n',
               '- NO OUTPUT CONTROL FOR STRESS PERIOD   12   TIME STEP   12\n',
               '- \n',
               '- SOLVING FOR HEAD \n',
               '-\n',
               '- NO OUTPUT CONTROL FOR STRESS PERIOD   12   TIME STEP   13\n',
               '- \n',
               '- SOLVING FOR HEAD \n',
               '-\n',
               '- NO OUTPUT CONTROL FOR STRESS PERIOD   12   TIME STEP   14\n',
               '- \n',
               '- SOLVING FOR HEAD \n',
               '-\n',
               '- NO OUTPUT CONTROL FOR STRESS PERIOD   12   TIME STEP   15\n',
               '- \n',
               '- SOLVING FOR HEAD \n',
               '-\n',
               '- NO OUTPUT CONTROL FOR STRESS PERIOD   12   TIME STEP   16\n',
               '- \n',
               '- SOLVING FOR HEAD \n',
               '-\n',
               '- NO OUTPUT CONTROL FOR STRESS PERIOD   12   TIME STEP   17\n',
               '- \n',
               '- SOLVING FOR HEAD \n',
               '-\n',
               '- NO OUTPUT CONTROL FOR STRESS PERIOD   12   TIME STEP   18\n',
               '- \n',
               '- SOLVING FOR HEAD \n',
               '-\n',
               '- NO OUTPUT CONTROL FOR STRESS PERIOD   12   TIME STEP   19\n',
               '- \n',
               '- SOLVING FOR HEAD \n',
               '-\n',
               '- NO OUTPUT CONTROL FOR STRESS PERIOD   12   TIME STEP   20\n',
               '- \n',
               '- SOLVING FOR HEAD \n',
               '-\n',
               '- NO OUTPUT CONTROL FOR STRESS PERIOD   12   TIME STEP   21\n',
               '- \n',
               '- SOLVING FOR HEAD \n',
               '-\n',
               '- NO OUTPUT CONTROL FOR STRESS PERIOD   12   TIME STEP   22\n',
               '- \n',
               '- SOLVING FOR HEAD \n',
               '-\n',
               '- NO OUTPUT CONTROL FOR STRESS PERIOD   12   TIME STEP   23\n',
               '- \n',
               '- SOLVING FOR HEAD \n',
               '-\n',
               '- NO OUTPUT CONTROL FOR STRESS PERIOD   12   TIME STEP   24\n',
               '- \n',
               '- SOLVING FOR HEAD \n',
               '-\n',
               '- NO OUTPUT CONTROL FOR STRESS PERIOD   12   TIME STEP   25\n',
               '- \n',
               '- SOLVING FOR HEAD \n',
               '-\n',
               '- NO OUTPUT CONTROL FOR STRESS PERIOD   12   TIME STEP   26\n',
               '- \n',
               '- SOLVING FOR HEAD \n',
               '-\n',
               '- NO OUTPUT CONTROL FOR STRESS PERIOD   12   TIME STEP   27\n',
               '- \n',
               '- SOLVING FOR HEAD \n',
               '-\n',
               '- NO OUTPUT CONTROL FOR STRESS PERIOD   12   TIME STEP   28\n',
               '- \n',
               '- SOLVING FOR HEAD \n',
               '-\n',
               '- NO OUTPUT CONTROL FOR STRESS PERIOD   12   TIME STEP   29\n',
               '- \n',
               '- SOLVING FOR HEAD \n',
               '-\n',
               '- NO OUTPUT CONTROL FOR STRESS PERIOD   12   TIME STEP   30\n',
               '-\n',
               '-\n',
               '-\n',
               '- STREAM LISTING     PERIOD     12   STEP       30\n',
               '-\n',
               '- LAYER ROW COL. STREAM  RCH.   FLOW INTO    STREAM     FLOW '
               'OUT OF   OVRLND.    DIRECT     STREAM      STREAM      '
               'STREAM     STREAM  STREAMBED   FLOW TO   CHNG. UNSAT. \n',
               '-                SEG.NO.  NO.   STRM. RCH.    LOSS       STRM. '
               'RCH.   RUNOFF     PRECIP       ET         HEAD        '
               'DEPTH      WIDTH  CONDCTNC.   WAT. TAB.\n',
               '-\n',
               '-   1    4    1     1     1    2.2080E+00  9.5313E-04   '
               '2.2071E+00  0.000E+00  0.000E+00  0.000E+00  1.40954E+02  '
               '1.104E+00  3.134E+00  5.940E-04  1.105E-03 -1.515E-04\n',
               '-   1    4    2     1     2    2.2071E+00  9.5285E-04   '
               '2.2061E+00  0.000E+00  0.000E+00  0.000E+00  1.40654E+02  '
               '1.104E+00  3.134E+00  5.939E-04  1.104E-03 -1.512E-04\n',
               '-   1    4    3     1     3    2.2061E+00  9.5258E-04   '
               '2.2051E+00  0.000E+00  0.000E+00  0.000E+00  1.40354E+02  '
               '1.104E+00  3.133E+00  5.939E-04  1.103E-03 -1.520E-04\n',
               '-   1    4    4     1     4    2.2051E+00  9.5231E-04   '
               '2.2042E+00  0.000E+00  0.000E+00  0.000E+00  1.40054E+02  '
               '1.104E+00  3.133E+00  5.938E-04  1.099E-03 -1.468E-04\n',
               '-   1    4    5     1     5    2.2042E+00  9.5203E-04   '
               '2.2032E+00  0.000E+00  0.000E+00  0.000E+00  1.39753E+02  '
               '1.103E+00  3.133E+00  5.937E-04  1.094E-03 -1.416E-04\n',
               '-   1    4    6     1     6    2.2032E+00  9.5176E-04   '
               '2.2023E+00  0.000E+00  0.000E+00  0.000E+00  1.39453E+02  '
               '1.103E+00  3.132E+00  5.936E-04  1.088E-03 -1.364E-04\n',
               '-   1    4    7     1     7    2.2023E+00  9.5148E-04   '
               '2.2013E+00  0.000E+00  0.000E+00  0.000E+00  1.39153E+02  '
               '1.103E+00  3.132E+00  5.935E-04  1.085E-03 -1.336E-04\n',
               '-   1    4    8     1     8    2.2013E+00  9.5121E-04   '
               '2.2004E+00  0.000E+00  0.000E+00  0.000E+00  1.38853E+02  '
               '1.103E+00  3.132E+00  5.935E-04  1.085E-03 -1.334E-04\n',
               '-   1    4    9     1     9    2.2004E+00  9.5093E-04   '
               '2.1994E+00  0.000E+00  0.000E+00  0.000E+00  1.38552E+02  '
               '1.102E+00  3.132E+00  5.934E-04  1.084E-03 -1.331E-04\n',
               '-   1    4   10     1    10    2.1994E+00  9.5066E-04   '
               '2.1985E+00  0.000E+00  0.000E+00  0.000E+00  1.38252E+02  '
               '1.102E+00  3.131E+00  5.933E-04  1.084E-03 -1.329E-04\n',
               '-   1    4   11     1    11    2.1985E+00  9.5039E-04   '
               '2.1975E+00  0.000E+00  0.000E+00  0.000E+00  1.37952E+02  '
               '1.102E+00  3.131E+00  5.932E-04  1.082E-03 -1.315E-04\n',
               '-   1    4   12     1    12    2.1975E+00  9.5011E-04   '
               '2.1966E+00  0.000E+00  0.000E+00  0.000E+00  1.37652E+02  '
               '1.102E+00  3.131E+00  5.931E-04  1.075E-03 -1.251E-04\n',
               '-   1    4   13     1    13    2.1966E+00  9.4984E-04   '
               '2.1956E+00  0.000E+00  0.000E+00  0.000E+00  1.37351E+02  '
               '1.101E+00  3.130E+00  5.931E-04  1.069E-03 -1.187E-04\n',
               '-   1    4   14     1    14    2.1956E+00  9.4956E-04   '
               '2.1947E+00  0.000E+00  0.000E+00  0.000E+00  1.37051E+02  '
               '1.101E+00  3.130E+00  5.930E-04  1.062E-03 -1.123E-04\n',
               '-   1    4   15     1    15    2.1947E+00  9.4929E-04   '
               '2.1937E+00  0.000E+00  0.000E+00  0.000E+00  1.36751E+02  '
               '1.101E+00  3.130E+00  5.929E-04  1.061E-03 -1.115E-04\n',
               '-   1    4   16     1    16    2.1937E+00  9.4902E-04   '
               '2.1928E+00  0.000E+00  0.000E+00  0.000E+00  1.36451E+02  '
               '1.101E+00  3.129E+00  5.928E-04  1.060E-03 -1.112E-04\n',
               '-   1    4   17     1    17    2.1928E+00  9.4874E-04   '
               '2.1918E+00  0.000E+00  0.000E+00  0.000E+00  1.36150E+02  '
               '1.100E+00  3.129E+00  5.927E-04  1.060E-03 -1.109E-04\n',
               '-   1    4   18     1    18    2.1918E+00  9.4847E-04   '
               '2.1909E+00  0.000E+00  0.000E+00  0.000E+00  1.35850E+02  '
               '1.100E+00  3.129E+00  5.927E-04  1.059E-03 -1.105E-04\n',
               '-   1    4   19     1    19    2.1909E+00  9.4820E-04   '
               '2.1899E+00  0.000E+00  0.000E+00  0.000E+00  1.35550E+02  '
               '1.100E+00  3.129E+00  5.926E-04  1.058E-03 -1.102E-04\n',
               '-   1    4   20     1    20    2.1899E+00  9.4792E-04   '
               '2.1890E+00  0.000E+00  0.000E+00  0.000E+00  1.35250E+02  '
               '1.100E+00  3.128E+00  5.925E-04  1.058E-03 -1.098E-04\n',
               '-   1    4   21     1    21    2.1890E+00  9.4765E-04   '
               '2.1880E+00  0.000E+00  0.000E+00  0.000E+00  1.34950E+02  '
               '1.100E+00  3.128E+00  5.924E-04  1.057E-03 -1.094E-04\n',
               '-   1    4   22     1    22    2.1880E+00  9.4738E-04   '
               '2.1871E+00  0.000E+00  0.000E+00  0.000E+00  1.34649E+02  '
               '1.099E+00  3.128E+00  5.923E-04  1.056E-03 -1.089E-04\n',
               '-   1    4   23     1    23    2.1871E+00  9.4710E-04   '
               '2.1862E+00  0.000E+00  0.000E+00  0.000E+00  1.34349E+02  '
               '1.099E+00  3.127E+00  5.923E-04  1.056E-03 -1.085E-04\n',
               '-   1    4   24     1    24    2.1862E+00  9.4683E-04   '
               '2.1852E+00  0.000E+00  0.000E+00  0.000E+00  1.34049E+02  '
               '1.099E+00  3.127E+00  5.922E-04  1.055E-03 -1.080E-04\n',
               '-   1    4   25     1    25    2.1852E+00  9.4656E-04   '
               '2.1843E+00  0.000E+00  0.000E+00  0.000E+00  1.33749E+02  '
               '1.099E+00  3.127E+00  5.921E-04  1.054E-03 -1.075E-04\n',
               '-   1    4   26     1    26    2.1843E+00  9.4628E-04   '
               '2.1833E+00  0.000E+00  0.000E+00  0.000E+00  1.33448E+02  '
               '1.098E+00  3.127E+00  5.920E-04  1.053E-03 -1.069E-04\n',
               '-   1    4   27     1    27    2.1833E+00  9.4601E-04   '
               '2.1824E+00  0.000E+00  0.000E+00  0.000E+00  1.33148E+02  '
               '1.098E+00  3.126E+00  5.919E-04  1.052E-03 -1.064E-04\n',
               '-   1    4   28     1    28    2.1824E+00  9.4574E-04   '
               '2.1814E+00  0.000E+00  0.000E+00  0.000E+00  1.32848E+02  '
               '1.098E+00  3.126E+00  5.919E-04  1.051E-03 -1.058E-04\n',
               '-   1    4   29     1    29    2.1814E+00  9.4547E-04   '
               '2.1805E+00  0.000E+00  0.000E+00  0.000E+00  1.32548E+02  '
               '1.098E+00  3.126E+00  5.918E-04  1.046E-03 -1.009E-04\n',
               '-   1    4   30     1    30    2.1805E+00  9.4519E-04   '
               '2.1795E+00  0.000E+00  0.000E+00  0.000E+00  1.32247E+02  '
               '1.097E+00  3.125E+00  5.917E-04  1.041E-03 -9.531E-05\n',
               '-   1    4   31     1    31    2.1795E+00  9.4492E-04   '
               '2.1786E+00  0.000E+00  0.000E+00  0.000E+00  1.31947E+02  '
               '1.097E+00  3.125E+00  5.916E-04  1.035E-03 -8.971E-05\n',
               '-   1    4   32     1    32    2.1786E+00  9.4465E-04   '
               '2.1776E+00  0.000E+00  0.000E+00  0.000E+00  1.31647E+02  '
               '1.097E+00  3.125E+00  5.915E-04  1.029E-03 -8.412E-05\n',
               '-   1    4   33     1    33    2.1776E+00  9.4438E-04   '
               '2.1767E+00  0.000E+00  0.000E+00  0.000E+00  1.31347E+02  '
               '1.097E+00  3.124E+00  5.915E-04  1.027E-03 -8.289E-05\n',
               '-   1    4   34     1    34    2.1767E+00  9.4410E-04   '
               '2.1758E+00  0.000E+00  0.000E+00  0.000E+00  1.31046E+02  '
               '1.096E+00  3.124E+00  5.914E-04  1.026E-03 -8.213E-05\n',
               '-   1    4   35     1    35    2.1758E+00  9.4383E-04   '
               '2.1748E+00  0.000E+00  0.000E+00  0.000E+00  1.30746E+02  '
               '1.096E+00  3.124E+00  5.913E-04  1.025E-03 -8.133E-05\n',
               '-   1    4   36     1    36    2.1748E+00  9.4356E-04   '
               '2.1739E+00  0.000E+00  0.000E+00  0.000E+00  1.30446E+02  '
               '1.096E+00  3.124E+00  5.912E-04  1.024E-03 -8.049E-05\n',
               '-   1    4   37     1    37    2.1739E+00  9.4329E-04   '
               '2.1729E+00  0.000E+00  0.000E+00  0.000E+00  1.30146E+02  '
               '1.096E+00  3.123E+00  5.911E-04  1.023E-03 -7.960E-05\n',
               '-   1    4   38     1    38    2.1729E+00  9.4301E-04   '
               '2.1720E+00  0.000E+00  0.000E+00  0.000E+00  1.29845E+02  '
               '1.095E+00  3.123E+00  5.911E-04  1.022E-03 -7.866E-05\n',
               '-   1    4   39     1    39    2.1720E+00  9.4274E-04   '
               '2.1710E+00  0.000E+00  0.000E+00  0.000E+00  1.29545E+02  '
               '1.095E+00  3.123E+00  5.910E-04  1.020E-03 -7.767E-05\n',
               '-   1    4   40     1    40    2.1710E+00  9.4247E-04   '
               '2.1701E+00  0.000E+00  0.000E+00  0.000E+00  1.29245E+02  '
               '1.095E+00  3.122E+00  5.909E-04  1.019E-03 -7.664E-05\n',
               '-   1    4   41     1    41    2.1701E+00  9.4220E-04   '
               '2.1692E+00  0.000E+00  0.000E+00  0.000E+00  1.28945E+02  '
               '1.095E+00  3.122E+00  5.908E-04  1.018E-03 -7.532E-05\n',
               '-   1    4   42     1    42    2.1692E+00  9.4193E-04   '
               '2.1682E+00  0.000E+00  0.000E+00  0.000E+00  1.28644E+02  '
               '1.094E+00  3.122E+00  5.907E-04  1.008E-03 -6.610E-05\n',
               '-   1    4   43     1    43    2.1682E+00  9.4165E-04   '
               '2.1673E+00  0.000E+00  0.000E+00  0.000E+00  1.28344E+02  '
               '1.094E+00  3.122E+00  5.907E-04  9.973E-04 -5.569E-05\n',
               '-   1    4   44     1    44    2.1673E+00  9.4138E-04   '
               '2.1663E+00  0.000E+00  0.000E+00  0.000E+00  1.28044E+02  '
               '1.094E+00  3.121E+00  5.906E-04  9.892E-04 -4.786E-05\n',
               '-   1    4   45     1    45    2.1663E+00  9.4111E-04   '
               '2.1654E+00  0.000E+00  0.000E+00  0.000E+00  1.27744E+02  '
               '1.094E+00  3.121E+00  5.905E-04  9.879E-04 -4.676E-05\n',
               '-   1    4   46     1    46    2.1654E+00  9.4084E-04   '
               '2.1644E+00  0.000E+00  0.000E+00  0.000E+00  1.27443E+02  '
               '1.093E+00  3.121E+00  5.904E-04  9.865E-04 -4.562E-05\n',
               '-   1    4   47     1    47    2.1644E+00  9.4057E-04   '
               '2.1635E+00  0.000E+00  0.000E+00  0.000E+00  1.27143E+02  '
               '1.093E+00  3.120E+00  5.903E-04  9.850E-04 -4.442E-05\n',
               '-   1    4   48     1    48    2.1635E+00  9.4029E-04   '
               '2.1626E+00  0.000E+00  0.000E+00  0.000E+00  1.26843E+02  '
               '1.093E+00  3.120E+00  5.903E-04  9.835E-04 -4.318E-05\n',
               '-   1    4   49     1    49    2.1626E+00  9.4002E-04   '
               '2.1616E+00  0.000E+00  0.000E+00  0.000E+00  1.26543E+02  '
               '1.093E+00  3.120E+00  5.902E-04  9.819E-04 -4.190E-05\n',
               '-   1    4   50     1    50    2.1616E+00  9.3975E-04   '
               '2.1607E+00  0.000E+00  0.000E+00  0.000E+00  1.26242E+02  '
               '1.092E+00  3.119E+00  5.901E-04  9.803E-04 -4.057E-05\n',
               '-   1    4   51     1    51    2.1607E+00  9.3948E-04   '
               '2.1597E+00  0.000E+00  0.000E+00  0.000E+00  1.25942E+02  '
               '1.092E+00  3.119E+00  5.900E-04  9.787E-04 -3.921E-05\n',
               '-   1    4   52     1    52    2.1597E+00  9.3921E-04   '
               '2.1588E+00  0.000E+00  0.000E+00  0.000E+00  1.25642E+02  '
               '1.092E+00  3.119E+00  5.899E-04  9.770E-04 -3.780E-05\n',
               '-   1    4   53     1    53    2.1588E+00  9.3894E-04   '
               '2.1579E+00  0.000E+00  0.000E+00  0.000E+00  1.25342E+02  '
               '1.092E+00  3.119E+00  5.899E-04  9.753E-04 -3.637E-05\n',
               '-   1    4   54     1    54    2.1579E+00  9.3867E-04   '
               '2.1569E+00  0.000E+00  0.000E+00  0.000E+00  1.25041E+02  '
               '1.091E+00  3.118E+00  5.898E-04  9.736E-04 -3.490E-05\n',
               '-   1    4   55     1    55    2.1569E+00  9.3840E-04   '
               '2.1560E+00  0.000E+00  0.000E+00  0.000E+00  1.24741E+02  '
               '1.091E+00  3.118E+00  5.897E-04  9.718E-04 -3.340E-05\n',
               '-   1    4   56     1    56    2.1560E+00  9.3812E-04   '
               '2.1551E+00  0.000E+00  0.000E+00  0.000E+00  1.24441E+02  '
               '1.091E+00  3.118E+00  5.896E-04  9.700E-04 -3.187E-05\n',
               '-   1    4   57     1    57    2.1551E+00  9.3785E-04   '
               '2.1541E+00  0.000E+00  0.000E+00  0.000E+00  1.24141E+02  '
               '1.091E+00  3.117E+00  5.895E-04  9.682E-04 -3.031E-05\n',
               '-   1    4   58     1    58    2.1541E+00  9.3758E-04   '
               '2.1532E+00  0.000E+00  0.000E+00  0.000E+00  1.23840E+02  '
               '1.090E+00  3.117E+00  5.895E-04  9.663E-04 -2.873E-05\n',
               '-   1    4   59     1    59    2.1532E+00  9.3731E-04   '
               '2.1522E+00  0.000E+00  0.000E+00  0.000E+00  1.23540E+02  '
               '1.090E+00  3.117E+00  5.894E-04  9.644E-04 -2.713E-05\n',
               '-   1    4   60     1    60    2.1522E+00  9.3704E-04   '
               '2.1513E+00  0.000E+00  0.000E+00  0.000E+00  1.23240E+02  '
               '1.090E+00  3.117E+00  5.893E-04  9.626E-04 -2.552E-05\n',
               '-   1    4   61     1    61    2.1513E+00  9.3677E-04   '
               '2.1504E+00  0.000E+00  0.000E+00  0.000E+00  1.22940E+02  '
               '1.090E+00  3.116E+00  5.892E-04  9.607E-04 -2.390E-05\n',
               '-   1    4   62     1    62    2.1504E+00  9.3650E-04   '
               '2.1494E+00  0.000E+00  0.000E+00  0.000E+00  1.22639E+02  '
               '1.089E+00  3.116E+00  5.891E-04  9.588E-04 -2.227E-05\n',
               '-   1    4   63     1    63    2.1494E+00  9.3623E-04   '
               '2.1485E+00  0.000E+00  0.000E+00  0.000E+00  1.22339E+02  '
               '1.089E+00  3.116E+00  5.891E-04  9.569E-04 -2.064E-05\n',
               '-   1    4   64     1    64    2.1485E+00  9.3596E-04   '
               '2.1476E+00  0.000E+00  0.000E+00  0.000E+00  1.22039E+02  '
               '1.089E+00  3.115E+00  5.890E-04  9.550E-04 -1.901E-05\n',
               '-   1    4   65     1    65    2.1476E+00  9.3569E-04   '
               '2.1466E+00  0.000E+00  0.000E+00  0.000E+00  1.21739E+02  '
               '1.089E+00  3.115E+00  5.889E-04  9.531E-04 -1.738E-05\n',
               '-   1    4   66     1    66    2.1466E+00  9.3542E-04   '
               '2.1457E+00  0.000E+00  0.000E+00  0.000E+00  1.21438E+02  '
               '1.089E+00  3.115E+00  5.888E-04  9.512E-04 -1.578E-05\n',
               '-   1    4   67     1    67    2.1457E+00  9.3515E-04   '
               '2.1447E+00  0.000E+00  0.000E+00  0.000E+00  1.21138E+02  '
               '1.088E+00  3.115E+00  5.887E-04  9.493E-04 -1.419E-05\n',
               '-   1    4   68     1    68    2.1447E+00  9.3488E-04   '
               '2.1438E+00  0.000E+00  0.000E+00  0.000E+00  1.20838E+02  '
               '1.088E+00  3.114E+00  5.887E-04  9.475E-04 -1.263E-05\n',
               '-   1    4   69     1    69    2.1438E+00  9.3461E-04   '
               '2.1429E+00  0.000E+00  0.000E+00  0.000E+00  1.20538E+02  '
               '1.088E+00  3.114E+00  5.886E-04  9.457E-04 -1.110E-05\n',
               '-   1    4   70     1    70    2.1429E+00  9.3434E-04   '
               '2.1419E+00  0.000E+00  0.000E+00  0.000E+00  1.20238E+02  '
               '1.088E+00  3.114E+00  5.885E-04  9.439E-04 -9.606E-06\n',
               '-   1    4   71     1    71    2.1419E+00  9.3407E-04   '
               '2.1410E+00  0.000E+00  0.000E+00  0.000E+00  1.19937E+02  '
               '1.087E+00  3.113E+00  5.884E-04  9.422E-04 -8.166E-06\n',
               '-   1    4   72     1    72    2.1410E+00  9.3380E-04   '
               '2.1401E+00  0.000E+00  0.000E+00  0.000E+00  1.19637E+02  '
               '1.087E+00  3.113E+00  5.883E-04  9.406E-04 -6.780E-06\n',
               '-   1    4   73     1    73    2.1401E+00  9.3353E-04   '
               '2.1391E+00  0.000E+00  0.000E+00  0.000E+00  1.19337E+02  '
               '1.087E+00  3.113E+00  5.883E-04  9.390E-04 -5.449E-06\n',
               '-   1    4   74     1    74    2.1391E+00  9.3326E-04   '
               '2.1382E+00  0.000E+00  0.000E+00  0.000E+00  1.19037E+02  '
               '1.087E+00  3.112E+00  5.882E-04  9.426E-04 -9.333E-06\n',
               '-   1    4   75     1    75    2.1382E+00  9.3299E-04   '
               '2.1373E+00  0.000E+00  0.000E+00  0.000E+00  1.18736E+02  '
               '1.086E+00  3.112E+00  5.881E-04  9.436E-04 -1.064E-05\n',
               '-   1    4   76     1    76    2.1373E+00  9.3272E-04   '
               '2.1363E+00  0.000E+00  0.000E+00  0.000E+00  1.18436E+02  '
               '1.086E+00  3.112E+00  5.880E-04  9.422E-04 -9.512E-06\n',
               '-   1    4   77     1    77    2.1363E+00  9.3245E-04   '
               '2.1354E+00  0.000E+00  0.000E+00  0.000E+00  1.18136E+02  '
               '1.086E+00  3.112E+00  5.879E-04  9.409E-04 -8.477E-06\n',
               '-   1    4   78     1    78    2.1354E+00  9.3218E-04   '
               '2.1345E+00  0.000E+00  0.000E+00  0.000E+00  1.17836E+02  '
               '1.086E+00  3.111E+00  5.879E-04  9.455E-04 -1.328E-05\n',
               '-   1    4   79     1    79    2.1345E+00  9.3191E-04   '
               '2.1335E+00  0.000E+00  0.000E+00  0.000E+00  1.17535E+02  '
               '1.085E+00  3.111E+00  5.878E-04  9.509E-04 -1.896E-05\n',
               '-   1    4   80     1    80    2.1335E+00  9.3164E-04   '
               '2.1326E+00  0.000E+00  0.000E+00  0.000E+00  1.17235E+02  '
               '1.085E+00  3.111E+00  5.877E-04  9.500E-04 -1.833E-05\n',
               '-   1    4   81     1    81    2.1326E+00  9.3137E-04   '
               '2.1317E+00  0.000E+00  0.000E+00  0.000E+00  1.16935E+02  '
               '1.085E+00  3.110E+00  5.876E-04  9.492E-04 -1.785E-05\n',
               '-   1    4   82     1    82    2.1317E+00  9.3110E-04   '
               '2.1308E+00  0.000E+00  0.000E+00  0.000E+00  1.16635E+02  '
               '1.085E+00  3.110E+00  5.876E-04  9.487E-04 -1.756E-05\n',
               '-   1    4   83     1    83    2.1308E+00  9.3083E-04   '
               '2.1298E+00  0.000E+00  0.000E+00  0.000E+00  1.16334E+02  '
               '1.084E+00  3.110E+00  5.875E-04  9.483E-04 -1.745E-05\n',
               '-   1    4   84     1    84    2.1298E+00  9.3056E-04   '
               '2.1289E+00  0.000E+00  0.000E+00  0.000E+00  1.16034E+02  '
               '1.084E+00  3.110E+00  5.874E-04  9.481E-04 -1.756E-05\n',
               '-   1    4   85     1    85    2.1289E+00  9.3029E-04   '
               '2.1280E+00  0.000E+00  0.000E+00  0.000E+00  1.15734E+02  '
               '1.084E+00  3.109E+00  5.873E-04  9.571E-04 -2.685E-05\n',
               '-   1    4   86     1    86    2.1280E+00  9.3002E-04   '
               '2.1270E+00  0.000E+00  0.000E+00  0.000E+00  1.15434E+02  '
               '1.084E+00  3.109E+00  5.872E-04  9.662E-04 -3.616E-05\n',
               '-   1    4   87     1    87    2.1270E+00  9.2975E-04   '
               '2.1261E+00  0.000E+00  0.000E+00  0.000E+00  1.15133E+02  '
               '1.083E+00  3.109E+00  5.872E-04  9.766E-04 -4.682E-05\n',
               '-   1    4   88     1    88    2.1261E+00  9.2948E-04   '
               '2.1252E+00  0.000E+00  0.000E+00  0.000E+00  1.14833E+02  '
               '1.083E+00  3.108E+00  5.871E-04  9.775E-04 -4.806E-05\n',
               '-   1    4   89     1    89    2.1252E+00  9.2922E-04   '
               '2.1242E+00  0.000E+00  0.000E+00  0.000E+00  1.14533E+02  '
               '1.083E+00  3.108E+00  5.870E-04  9.788E-04 -4.963E-05\n',
               '-   1    4   90     1    90    2.1242E+00  9.2895E-04   '
               '2.1233E+00  0.000E+00  0.000E+00  0.000E+00  1.14233E+02  '
               '1.083E+00  3.108E+00  5.869E-04  9.861E-04 -5.718E-05\n',
               '-   1    4   91     1    91    2.1233E+00  9.2868E-04   '
               '2.1224E+00  0.000E+00  0.000E+00  0.000E+00  1.13932E+02  '
               '1.082E+00  3.108E+00  5.868E-04  9.990E-04 -7.035E-05\n',
               '-   1    4   92     1    92    2.1224E+00  9.2841E-04   '
               '2.1215E+00  0.000E+00  0.000E+00  0.000E+00  1.13632E+02  '
               '1.082E+00  3.107E+00  5.868E-04  1.002E-03 -7.319E-05\n',
               '-   1    4   93     1    93    2.1215E+00  9.2814E-04   '
               '2.1205E+00  0.000E+00  0.000E+00  0.000E+00  1.13332E+02  '
               '1.082E+00  3.107E+00  5.867E-04  1.005E-03 -7.647E-05\n',
               '-   1    4   94     1    94    2.1205E+00  9.2787E-04   '
               '2.1196E+00  0.000E+00  0.000E+00  0.000E+00  1.13032E+02  '
               '1.082E+00  3.107E+00  5.866E-04  1.008E-03 -8.019E-05\n',
               '-   1    4   95     1    95    2.1196E+00  9.2760E-04   '
               '2.1187E+00  0.000E+00  0.000E+00  0.000E+00  1.12731E+02  '
               '1.081E+00  3.106E+00  5.865E-04  1.024E-03 -9.664E-05\n',
               '-   1    4   96     1    96    2.1187E+00  9.2733E-04   '
               '2.1177E+00  0.000E+00  0.000E+00  0.000E+00  1.12431E+02  '
               '1.081E+00  3.106E+00  5.864E-04  1.029E-03 -1.014E-04\n',
               '-   1    4   97     1    97    2.1177E+00  9.2707E-04   '
               '2.1168E+00  0.000E+00  0.000E+00  0.000E+00  1.12131E+02  '
               '1.081E+00  3.106E+00  5.864E-04  1.034E-03 -1.067E-04\n',
               '-   1    4   98     1    98    2.1168E+00  9.2680E-04   '
               '2.1159E+00  0.000E+00  0.000E+00  0.000E+00  1.11831E+02  '
               '1.081E+00  3.105E+00  5.863E-04  1.064E-03 -1.369E-04\n',
               '-   1    4   99     1    99    2.1159E+00  9.2653E-04   '
               '2.1150E+00  0.000E+00  0.000E+00  0.000E+00  1.11530E+02  '
               '1.080E+00  3.105E+00  5.862E-04  1.093E-03 -1.665E-04\n',
               '-   1    4  100     1   100    2.1150E+00  9.2626E-04   '
               '2.1140E+00  0.000E+00  0.000E+00  0.000E+00  1.11230E+02  '
               '1.080E+00  3.105E+00  5.861E-04  1.100E-03 -1.736E-04\n',
               '-\n',
               '-\n',
               '-\n',
               '-1\n',
               '-  VOLUMETRIC BUDGET FOR UNSATURATED ZONE BENEATH STREAMS AT '
               'END OF TIME STEP    30 STRESS PERIOD  12\n',
               '-  '
               '------------------------------------------------------------------------------------------------\n',
               '-\n',
               '-    CUMULATIVE VOLUMES             L**3    RATES FOR THIS '
               'TIME STEP         L**3/T\n',
               '-    ------------------                     '
               '------------------------\n',
               '-\n',
               '-\n',
               '-          STREAM LOSS =     13035086.0000            STREAM '
               'LOSS =        9.3964E-02\n',
               '-    CHANGE IN STORAGE =       434263.7500      CHANGE IN '
               'STORAGE =       -6.9601E-03\n',
               '-       RECHARGE TO GW =     12603691.0000         RECHARGE TO '
               'GW =            0.1009\n',
               '-\n',
               '-             TOTAL IN =     13035086.0000               TOTAL '
               'IN =            0.1009\n',
               '-\n',
               '-            TOTAL OUT =     13037955.0000              TOTAL '
               'OUT =            0.1009\n',
               '-\n',
               '-             IN - OUT =        -2869.0000               IN - '
               'OUT =        1.1548E-06\n',
               '-\n',
               '-  PERCENT DISCREPANCY =           -0.01      PERCENT '
               'DISCREPANCY =             0.00\n',
               '-\n',
               '-\n',
               '-\n',
               '-1\n',
               '-  VOLUMETRIC BUDGET FOR ENTIRE MODEL AT END OF TIME STEP   '
               '30, STRESS PERIOD  12\n',
               '-  '
               '------------------------------------------------------------------------------\n',
               '-\n',
               '-     CUMULATIVE VOLUMES      L**3       RATES FOR THIS TIME '
               'STEP      L**3/T\n',
               '-     ------------------                 '
               '------------------------\n',
               '-\n',
               '-           IN:                                      IN:\n',
               '-           ---                                      ---\n',
               '-             STORAGE =     8807844.0000               STORAGE '
               '=           0.2001\n',
               '-       CONSTANT HEAD =           0.0000         CONSTANT HEAD '
               '=           0.0000\n',
               '-     HEAD DEP BOUNDS =           0.0000       HEAD DEP BOUNDS '
               '=           0.0000\n',
               '-      STREAM LEAKAGE =    12603733.0000        STREAM LEAKAGE '
               '=           0.1009\n',
               '-\n',
               '-            TOTAL IN =    21411576.0000              TOTAL IN '
               '=           0.3011\n',
               '-\n',
               '-          OUT:                                     OUT:\n',
               '-          ----                                     ----\n',
               '-             STORAGE =     7392901.5000               STORAGE '
               '=       2.8695E-02\n',
               '-       CONSTANT HEAD =           0.0000         CONSTANT HEAD '
               '=           0.0000\n',
               '-     HEAD DEP BOUNDS =    14018748.0000       HEAD DEP BOUNDS '
               '=           0.2724\n',
               '-      STREAM LEAKAGE =           0.0000        STREAM LEAKAGE '
               '=           0.0000\n',
               '-\n',
               '-           TOTAL OUT =    21411650.0000             TOTAL OUT '
               '=           0.3011\n',
               '-\n',
               '-            IN - OUT =         -74.0000              IN - OUT '
               '=       1.5795E-06\n',
               '-\n',
               '- PERCENT DISCREPANCY =          -0.00     PERCENT DISCREPANCY '
               '=           0.00\n',
               '-\n',
               '-\n',
               '-\n',
               '-\n',
               '-\n',
               '-\n',
               '-         TIME SUMMARY AT END OF TIME STEP   30 IN STRESS '
               'PERIOD   12\n',
               '-                    SECONDS     MINUTES      HOURS       '
               'DAYS        YEARS\n',
               '-                    '
               '-----------------------------------------------------------\n',
               '-   TIME STEP LENGTH 2.49961E+05  4166.0      69.434      '
               '2.8931     7.92080E-03\n',
               '- STRESS PERIOD TIME 2.59200E+06  43200.      720.00      '
               '30.000     8.21355E-02\n',
               '-         TOTAL TIME 3.11040E+07 5.18400E+05  8640.0      '
               '360.00     0.98563    \n',
               '-1\n',
               '-1\n',
               '-                            STRESS PERIOD NO.   13, LENGTH '
               '=   2592000.    \n',
               '-                            '
               '-----------------------------------------------\n',
               '-\n',
               '-                              NUMBER OF TIME STEPS =    30\n',
               '-\n',
               '-                               MULTIPLIER FOR DELT =     '
               '1.100\n',
               '-\n',
               '-                            INITIAL TIME STEP SIZE =   '
               '15757.40    \n',
               '-\n',
               '- REUSING NON-PARAMETER GHB CELLS FROM LAST STRESS PERIOD\n',
               '-\n',
               '-      7 GHB CELLS\n',
               '- \n',
               '- SOLVING FOR HEAD \n',
               '-\n',
               '- NO OUTPUT CONTROL FOR STRESS PERIOD   13   TIME STEP    1\n',
               '- \n',
               '- SOLVING FOR HEAD \n',
               '-\n',
               '- NO OUTPUT CONTROL FOR STRESS PERIOD   13   TIME STEP    2\n',
               '- \n',
               '- SOLVING FOR HEAD \n',
               '-\n',
               '- NO OUTPUT CONTROL FOR STRESS PERIOD   13   TIME STEP    3\n',
               '- \n',
               '- SOLVING FOR HEAD \n',
               '-\n',
               '- NO OUTPUT CONTROL FOR STRESS PERIOD   13   TIME STEP    4\n',
               '- \n',
               '- SOLVING FOR HEAD \n',
               '-\n',
               '- NO OUTPUT CONTROL FOR STRESS PERIOD   13   TIME STEP    5\n',
               '- \n',
               '- SOLVING FOR HEAD \n',
               '-\n',
               '- NO OUTPUT CONTROL FOR STRESS PERIOD   13   TIME STEP    6\n',
               '- \n',
               '- SOLVING FOR HEAD \n',
               '-\n',
               '- NO OUTPUT CONTROL FOR STRESS PERIOD   13   TIME STEP    7\n',
               '- \n',
               '- SOLVING FOR HEAD \n',
               '-\n',
               '- NO OUTPUT CONTROL FOR STRESS PERIOD   13   TIME STEP    8\n',
               '- \n',
               '- SOLVING FOR HEAD \n',
               '-\n',
               '- NO OUTPUT CONTROL FOR STRESS PERIOD   13   TIME STEP    9\n',
               '- \n',
               '- SOLVING FOR HEAD \n',
               '-\n',
               '- NO OUTPUT CONTROL FOR STRESS PERIOD   13   TIME STEP   10\n',
               '- \n',
               '- SOLVING FOR HEAD \n',
               '-\n',
               '- NO OUTPUT CONTROL FOR STRESS PERIOD   13   TIME STEP   11\n',
               '- \n',
               '- SOLVING FOR HEAD \n',
               '-\n',
               '- NO OUTPUT CONTROL FOR STRESS PERIOD   13   TIME STEP   12\n',
               '- \n',
               '- SOLVING FOR HEAD \n',
               '-\n',
               '- NO OUTPUT CONTROL FOR STRESS PERIOD   13   TIME STEP   13\n',
               '- \n',
               '- SOLVING FOR HEAD \n',
               '-\n',
               '- NO OUTPUT CONTROL FOR STRESS PERIOD   13   TIME STEP   14\n',
               '- \n',
               '- SOLVING FOR HEAD \n',
               '-\n',
               '- NO OUTPUT CONTROL FOR STRESS PERIOD   13   TIME STEP   15\n',
               '- \n',
               '- SOLVING FOR HEAD \n',
               '-\n',
               '- NO OUTPUT CONTROL FOR STRESS PERIOD   13   TIME STEP   16\n',
               '- \n',
               '- SOLVING FOR HEAD \n',
               '-\n',
               '- NO OUTPUT CONTROL FOR STRESS PERIOD   13   TIME STEP   17\n',
               '- \n',
               '- SOLVING FOR HEAD \n',
               '-\n',
               '- NO OUTPUT CONTROL FOR STRESS PERIOD   13   TIME STEP   18\n',
               '- \n',
               '- SOLVING FOR HEAD \n',
               '-\n',
               '- NO OUTPUT CONTROL FOR STRESS PERIOD   13   TIME STEP   19\n',
               '- \n',
               '- SOLVING FOR HEAD \n',
               '-\n',
               '- NO OUTPUT CONTROL FOR STRESS PERIOD   13   TIME STEP   20\n',
               '- \n',
               '- SOLVING FOR HEAD \n',
               '-\n',
               '- NO OUTPUT CONTROL FOR STRESS PERIOD   13   TIME STEP   21\n',
               '- \n',
               '- SOLVING FOR HEAD \n',
               '-\n',
               '- NO OUTPUT CONTROL FOR STRESS PERIOD   13   TIME STEP   22\n',
               '- \n',
               '- SOLVING FOR HEAD \n',
               '-\n',
               '- NO OUTPUT CONTROL FOR STRESS PERIOD   13   TIME STEP   23\n',
               '- \n',
               '- SOLVING FOR HEAD \n',
               '-\n',
               '- NO OUTPUT CONTROL FOR STRESS PERIOD   13   TIME STEP   24\n',
               '- \n',
               '- SOLVING FOR HEAD \n',
               '-\n',
               '- NO OUTPUT CONTROL FOR STRESS PERIOD   13   TIME STEP   25\n',
               '- \n',
               '- SOLVING FOR HEAD \n',
               '-\n',
               '- NO OUTPUT CONTROL FOR STRESS PERIOD   13   TIME STEP   26\n',
               '- \n',
               '- SOLVING FOR HEAD \n',
               '-\n',
               '- NO OUTPUT CONTROL FOR STRESS PERIOD   13   TIME STEP   27\n',
               '- \n',
               '- SOLVING FOR HEAD \n',
               '-\n',
               '- NO OUTPUT CONTROL FOR STRESS PERIOD   13   TIME STEP   28\n',
               '- \n',
               '- SOLVING FOR HEAD \n',
               '-\n',
               '- NO OUTPUT CONTROL FOR STRESS PERIOD   13   TIME STEP   29\n',
               '- \n',
               '- SOLVING FOR HEAD \n',
               '-\n',
               '- NO OUTPUT CONTROL FOR STRESS PERIOD   13   TIME STEP   30\n',
               '-\n',
               '-\n',
               '-\n',
               '- STREAM LISTING     PERIOD     13   STEP       30\n',
               '-\n',
               '- LAYER ROW COL. STREAM  RCH.   FLOW INTO    STREAM     FLOW '
               'OUT OF   OVRLND.    DIRECT     STREAM      STREAM      '
               'STREAM     STREAM  STREAMBED   FLOW TO   CHNG. UNSAT. \n',
               '-                SEG.NO.  NO.   STRM. RCH.    LOSS       STRM. '
               'RCH.   RUNOFF     PRECIP       ET         HEAD        '
               'DEPTH      WIDTH  CONDCTNC.   WAT. TAB.\n',
               '-\n',
               '-   1    4    1     1     1    1.2680E+00  6.7379E-04   '
               '1.2673E+00  0.000E+00  0.000E+00  0.000E+00  1.40683E+02  '
               '8.330E-01  2.809E+00  5.054E-04  7.653E-04 -9.148E-05\n',
               '-   1    4    2     1     2    1.2673E+00  6.7358E-04   '
               '1.2667E+00  0.000E+00  0.000E+00  0.000E+00  1.40383E+02  '
               '8.328E-01  2.809E+00  5.054E-04  7.649E-04 -9.130E-05\n',
               '-   1    4    3     1     3    1.2667E+00  6.7337E-04   '
               '1.2660E+00  0.000E+00  0.000E+00  0.000E+00  1.40083E+02  '
               '8.325E-01  2.809E+00  5.053E-04  7.645E-04 -9.112E-05\n',
               '-   1    4    4     1     4    1.2660E+00  6.7316E-04   '
               '1.2653E+00  0.000E+00  0.000E+00  0.000E+00  1.39782E+02  '
               '8.323E-01  2.808E+00  5.052E-04  7.641E-04 -9.094E-05\n',
               '-   1    4    5     1     5    1.2653E+00  6.7296E-04   '
               '1.2646E+00  0.000E+00  0.000E+00  0.000E+00  1.39482E+02  '
               '8.321E-01  2.808E+00  5.051E-04  7.637E-04 -9.075E-05\n',
               '-   1    4    6     1     6    1.2646E+00  6.7275E-04   '
               '1.2640E+00  0.000E+00  0.000E+00  0.000E+00  1.39182E+02  '
               '8.319E-01  2.808E+00  5.051E-04  7.633E-04 -9.055E-05\n',
               '-   1    4    7     1     7    1.2640E+00  6.7254E-04   '
               '1.2633E+00  0.000E+00  0.000E+00  0.000E+00  1.38882E+02  '
               '8.316E-01  2.808E+00  5.050E-04  7.629E-04 -9.035E-05\n',
               '-   1    4    8     1     8    1.2633E+00  6.7233E-04   '
               '1.2626E+00  0.000E+00  0.000E+00  0.000E+00  1.38581E+02  '
               '8.314E-01  2.807E+00  5.049E-04  7.625E-04 -9.013E-05\n',
               '-   1    4    9     1     9    1.2626E+00  6.7212E-04   '
               '1.2619E+00  0.000E+00  0.000E+00  0.000E+00  1.38281E+02  '
               '8.312E-01  2.807E+00  5.049E-04  7.620E-04 -8.991E-05\n',
               '-   1    4   10     1    10    1.2619E+00  6.7192E-04   '
               '1.2613E+00  0.000E+00  0.000E+00  0.000E+00  1.37981E+02  '
               '8.310E-01  2.807E+00  5.048E-04  7.616E-04 -8.967E-05\n',
               '-   1    4   11     1    11    1.2613E+00  6.7171E-04   '
               '1.2606E+00  0.000E+00  0.000E+00  0.000E+00  1.37681E+02  '
               '8.308E-01  2.806E+00  5.047E-04  7.611E-04 -8.942E-05\n',
               '-   1    4   12     1    12    1.2606E+00  6.7150E-04   '
               '1.2599E+00  0.000E+00  0.000E+00  0.000E+00  1.37381E+02  '
               '8.305E-01  2.806E+00  5.046E-04  7.607E-04 -8.915E-05\n',
               '-   1    4   13     1    13    1.2599E+00  6.7129E-04   '
               '1.2593E+00  0.000E+00  0.000E+00  0.000E+00  1.37080E+02  '
               '8.303E-01  2.806E+00  5.046E-04  7.602E-04 -8.887E-05\n',
               '-   1    4   14     1    14    1.2593E+00  6.7109E-04   '
               '1.2586E+00  0.000E+00  0.000E+00  0.000E+00  1.36780E+02  '
               '8.301E-01  2.806E+00  5.045E-04  7.597E-04 -8.857E-05\n',
               '-   1    4   15     1    15    1.2586E+00  6.7088E-04   '
               '1.2579E+00  0.000E+00  0.000E+00  0.000E+00  1.36480E+02  '
               '8.299E-01  2.805E+00  5.044E-04  7.591E-04 -8.825E-05\n',
               '-   1    4   16     1    16    1.2579E+00  6.7067E-04   '
               '1.2572E+00  0.000E+00  0.000E+00  0.000E+00  1.36180E+02  '
               '8.297E-01  2.805E+00  5.044E-04  7.586E-04 -8.791E-05\n',
               '-   1    4   17     1    17    1.2572E+00  6.7046E-04   '
               '1.2566E+00  0.000E+00  0.000E+00  0.000E+00  1.35879E+02  '
               '8.294E-01  2.805E+00  5.043E-04  7.526E-04 -8.209E-05\n',
               '-   1    4   18     1    18    1.2566E+00  6.7026E-04   '
               '1.2559E+00  0.000E+00  0.000E+00  0.000E+00  1.35579E+02  '
               '8.292E-01  2.805E+00  5.042E-04  7.455E-04 -7.538E-05\n',
               '-   1    4   19     1    19    1.2559E+00  6.7005E-04   '
               '1.2552E+00  0.000E+00  0.000E+00  0.000E+00  1.35279E+02  '
               '8.290E-01  2.804E+00  5.041E-04  7.369E-04 -6.684E-05\n',
               '-   1    4   20     1    20    1.2552E+00  6.6984E-04   '
               '1.2546E+00  0.000E+00  0.000E+00  0.000E+00  1.34979E+02  '
               '8.288E-01  2.804E+00  5.041E-04  7.299E-04 -6.007E-05\n',
               '-   1    4   21     1    21    1.2546E+00  6.6964E-04   '
               '1.2539E+00  0.000E+00  0.000E+00  0.000E+00  1.34679E+02  '
               '8.286E-01  2.804E+00  5.040E-04  7.294E-04 -5.974E-05\n',
               '-   1    4   22     1    22    1.2539E+00  6.6943E-04   '
               '1.2532E+00  0.000E+00  0.000E+00  0.000E+00  1.34378E+02  '
               '8.283E-01  2.804E+00  5.039E-04  7.288E-04 -5.941E-05\n',
               '-   1    4   23     1    23    1.2532E+00  6.6922E-04   '
               '1.2526E+00  0.000E+00  0.000E+00  0.000E+00  1.34078E+02  '
               '8.281E-01  2.803E+00  5.039E-04  7.283E-04 -5.904E-05\n',
               '-   1    4   24     1    24    1.2526E+00  6.6901E-04   '
               '1.2519E+00  0.000E+00  0.000E+00  0.000E+00  1.33778E+02  '
               '8.279E-01  2.803E+00  5.038E-04  7.277E-04 -5.865E-05\n',
               '-   1    4   25     1    25    1.2519E+00  6.6881E-04   '
               '1.2512E+00  0.000E+00  0.000E+00  0.000E+00  1.33478E+02  '
               '8.277E-01  2.803E+00  5.037E-04  7.270E-04 -5.824E-05\n',
               '-   1    4   26     1    26    1.2512E+00  6.6860E-04   '
               '1.2506E+00  0.000E+00  0.000E+00  0.000E+00  1.33177E+02  '
               '8.275E-01  2.802E+00  5.036E-04  7.264E-04 -5.780E-05\n',
               '-   1    4   27     1    27    1.2506E+00  6.6839E-04   '
               '1.2499E+00  0.000E+00  0.000E+00  0.000E+00  1.32877E+02  '
               '8.272E-01  2.802E+00  5.036E-04  7.257E-04 -5.733E-05\n',
               '-   1    4   28     1    28    1.2499E+00  6.6819E-04   '
               '1.2492E+00  0.000E+00  0.000E+00  0.000E+00  1.32577E+02  '
               '8.270E-01  2.802E+00  5.035E-04  7.250E-04 -5.684E-05\n',
               '-   1    4   29     1    29    1.2492E+00  6.6798E-04   '
               '1.2485E+00  0.000E+00  0.000E+00  0.000E+00  1.32277E+02  '
               '8.268E-01  2.802E+00  5.034E-04  7.243E-04 -5.632E-05\n',
               '-   1    4   30     1    30    1.2485E+00  6.6777E-04   '
               '1.2479E+00  0.000E+00  0.000E+00  0.000E+00  1.31977E+02  '
               '8.266E-01  2.801E+00  5.033E-04  7.236E-04 -5.578E-05\n',
               '-   1    4   31     1    31    1.2479E+00  6.6757E-04   '
               '1.2472E+00  0.000E+00  0.000E+00  0.000E+00  1.31676E+02  '
               '8.263E-01  2.801E+00  5.033E-04  7.228E-04 -5.520E-05\n',
               '-   1    4   32     1    32    1.2472E+00  6.6736E-04   '
               '1.2465E+00  0.000E+00  0.000E+00  0.000E+00  1.31376E+02  '
               '8.261E-01  2.801E+00  5.032E-04  7.220E-04 -5.460E-05\n',
               '-   1    4   33     1    33    1.2465E+00  6.6715E-04   '
               '1.2459E+00  0.000E+00  0.000E+00  0.000E+00  1.31076E+02  '
               '8.259E-01  2.801E+00  5.031E-04  7.211E-04 -5.397E-05\n',
               '-   1    4   34     1    34    1.2459E+00  6.6695E-04   '
               '1.2452E+00  0.000E+00  0.000E+00  0.000E+00  1.30776E+02  '
               '8.257E-01  2.800E+00  5.031E-04  7.202E-04 -5.330E-05\n',
               '-   1    4   35     1    35    1.2452E+00  6.6674E-04   '
               '1.2445E+00  0.000E+00  0.000E+00  0.000E+00  1.30475E+02  '
               '8.255E-01  2.800E+00  5.030E-04  7.193E-04 -5.260E-05\n',
               '-   1    4   36     1    36    1.2445E+00  6.6653E-04   '
               '1.2439E+00  0.000E+00  0.000E+00  0.000E+00  1.30175E+02  '
               '8.252E-01  2.800E+00  5.029E-04  7.184E-04 -5.187E-05\n',
               '-   1    4   37     1    37    1.2439E+00  6.6633E-04   '
               '1.2432E+00  0.000E+00  0.000E+00  0.000E+00  1.29875E+02  '
               '8.250E-01  2.800E+00  5.028E-04  7.174E-04 -5.111E-05\n',
               '-   1    4   38     1    38    1.2432E+00  6.6612E-04   '
               '1.2425E+00  0.000E+00  0.000E+00  0.000E+00  1.29575E+02  '
               '8.248E-01  2.799E+00  5.028E-04  7.164E-04 -5.030E-05\n',
               '-   1    4   39     1    39    1.2425E+00  6.6591E-04   '
               '1.2419E+00  0.000E+00  0.000E+00  0.000E+00  1.29275E+02  '
               '8.246E-01  2.799E+00  5.027E-04  7.154E-04 -4.946E-05\n',
               '-   1    4   40     1    40    1.2419E+00  6.6571E-04   '
               '1.2412E+00  0.000E+00  0.000E+00  0.000E+00  1.28974E+02  '
               '8.244E-01  2.799E+00  5.026E-04  7.143E-04 -4.858E-05\n',
               '-   1    4   41     1    41    1.2412E+00  6.6550E-04   '
               '1.2405E+00  0.000E+00  0.000E+00  0.000E+00  1.28674E+02  '
               '8.241E-01  2.799E+00  5.026E-04  7.101E-04 -4.463E-05\n',
               '-   1    4   42     1    42    1.2405E+00  6.6530E-04   '
               '1.2399E+00  0.000E+00  0.000E+00  0.000E+00  1.28374E+02  '
               '8.239E-01  2.798E+00  5.025E-04  7.047E-04 -3.940E-05\n',
               '-   1    4   43     1    43    1.2399E+00  6.6509E-04   '
               '1.2392E+00  0.000E+00  0.000E+00  0.000E+00  1.28074E+02  '
               '8.237E-01  2.798E+00  5.024E-04  6.994E-04 -3.427E-05\n',
               '-   1    4   44     1    44    1.2392E+00  6.6488E-04   '
               '1.2386E+00  0.000E+00  0.000E+00  0.000E+00  1.27773E+02  '
               '8.235E-01  2.798E+00  5.023E-04  6.982E-04 -3.330E-05\n',
               '-   1    4   45     1    45    1.2386E+00  6.6468E-04   '
               '1.2379E+00  0.000E+00  0.000E+00  0.000E+00  1.27473E+02  '
               '8.233E-01  2.797E+00  5.023E-04  6.970E-04 -3.229E-05\n',
               '-   1    4   46     1    46    1.2379E+00  6.6447E-04   '
               '1.2372E+00  0.000E+00  0.000E+00  0.000E+00  1.27173E+02  '
               '8.230E-01  2.797E+00  5.022E-04  6.957E-04 -3.125E-05\n',
               '-   1    4   47     1    47    1.2372E+00  6.6427E-04   '
               '1.2366E+00  0.000E+00  0.000E+00  0.000E+00  1.26873E+02  '
               '8.228E-01  2.797E+00  5.021E-04  6.944E-04 -3.017E-05\n',
               '-   1    4   48     1    48    1.2366E+00  6.6406E-04   '
               '1.2359E+00  0.000E+00  0.000E+00  0.000E+00  1.26573E+02  '
               '8.226E-01  2.797E+00  5.021E-04  6.931E-04 -2.906E-05\n',
               '-   1    4   49     1    49    1.2359E+00  6.6386E-04   '
               '1.2352E+00  0.000E+00  0.000E+00  0.000E+00  1.26272E+02  '
               '8.224E-01  2.796E+00  5.020E-04  6.918E-04 -2.792E-05\n',
               '-   1    4   50     1    50    1.2352E+00  6.6365E-04   '
               '1.2346E+00  0.000E+00  0.000E+00  0.000E+00  1.25972E+02  '
               '8.222E-01  2.796E+00  5.019E-04  6.904E-04 -2.675E-05\n',
               '-   1    4   51     1    51    1.2346E+00  6.6344E-04   '
               '1.2339E+00  0.000E+00  0.000E+00  0.000E+00  1.25672E+02  '
               '8.219E-01  2.796E+00  5.018E-04  6.890E-04 -2.555E-05\n',
               '-   1    4   52     1    52    1.2339E+00  6.6324E-04   '
               '1.2332E+00  0.000E+00  0.000E+00  0.000E+00  1.25372E+02  '
               '8.217E-01  2.796E+00  5.018E-04  6.876E-04 -2.432E-05\n',
               '-   1    4   53     1    53    1.2332E+00  6.6303E-04   '
               '1.2326E+00  0.000E+00  0.000E+00  0.000E+00  1.25071E+02  '
               '8.215E-01  2.795E+00  5.017E-04  6.861E-04 -2.307E-05\n',
               '-   1    4   54     1    54    1.2326E+00  6.6283E-04   '
               '1.2319E+00  0.000E+00  0.000E+00  0.000E+00  1.24771E+02  '
               '8.213E-01  2.795E+00  5.016E-04  6.846E-04 -2.179E-05\n',
               '-   1    4   55     1    55    1.2319E+00  6.6262E-04   '
               '1.2313E+00  0.000E+00  0.000E+00  0.000E+00  1.24471E+02  '
               '8.211E-01  2.795E+00  5.015E-04  6.831E-04 -2.049E-05\n',
               '-   1    4   56     1    56    1.2313E+00  6.6242E-04   '
               '1.2306E+00  0.000E+00  0.000E+00  0.000E+00  1.24171E+02  '
               '8.208E-01  2.795E+00  5.015E-04  6.816E-04 -1.918E-05\n',
               '-   1    4   57     1    57    1.2306E+00  6.6221E-04   '
               '1.2299E+00  0.000E+00  0.000E+00  0.000E+00  1.23871E+02  '
               '8.206E-01  2.794E+00  5.014E-04  6.801E-04 -1.785E-05\n',
               '-   1    4   58     1    58    1.2299E+00  6.6201E-04   '
               '1.2293E+00  0.000E+00  0.000E+00  0.000E+00  1.23570E+02  '
               '8.204E-01  2.794E+00  5.013E-04  6.781E-04 -1.613E-05\n',
               '-   1    4   59     1    59    1.2293E+00  6.6180E-04   '
               '1.2286E+00  0.000E+00  0.000E+00  0.000E+00  1.23270E+02  '
               '8.202E-01  2.794E+00  5.013E-04  6.753E-04 -1.350E-05\n',
               '-   1    4   60     1    60    1.2286E+00  6.6159E-04   '
               '1.2279E+00  0.000E+00  0.000E+00  0.000E+00  1.22970E+02  '
               '8.200E-01  2.794E+00  5.012E-04  6.728E-04 -1.123E-05\n',
               '-   1    4   61     1    61    1.2279E+00  6.6139E-04   '
               '1.2273E+00  0.000E+00  0.000E+00  0.000E+00  1.22670E+02  '
               '8.197E-01  2.793E+00  5.011E-04  6.707E-04 -9.356E-06\n',
               '-   1    4   62     1    62    1.2273E+00  6.6118E-04   '
               '1.2266E+00  0.000E+00  0.000E+00  0.000E+00  1.22370E+02  '
               '8.195E-01  2.793E+00  5.010E-04  6.691E-04 -7.887E-06\n',
               '-   1    4   63     1    63    1.2266E+00  6.6098E-04   '
               '1.2260E+00  0.000E+00  0.000E+00  0.000E+00  1.22069E+02  '
               '8.193E-01  2.793E+00  5.010E-04  6.679E-04 -6.886E-06\n',
               '-   1    4   64     1    64    1.2260E+00  6.6077E-04   '
               '1.2253E+00  0.000E+00  0.000E+00  0.000E+00  1.21769E+02  '
               '8.191E-01  2.792E+00  5.009E-04  6.671E-04 -6.375E-06\n',
               '-   1    4   65     1    65    1.2253E+00  6.6057E-04   '
               '1.2246E+00  0.000E+00  0.000E+00  0.000E+00  1.21469E+02  '
               '8.189E-01  2.792E+00  5.008E-04  6.669E-04 -6.349E-06\n',
               '-   1    4   66     1    66    1.2246E+00  6.6036E-04   '
               '1.2240E+00  0.000E+00  0.000E+00  0.000E+00  1.21169E+02  '
               '8.186E-01  2.792E+00  5.008E-04  6.661E-04 -5.743E-06\n',
               '-   1    4   67     1    67    1.2240E+00  6.6016E-04   '
               '1.2233E+00  0.000E+00  0.000E+00  0.000E+00  1.20868E+02  '
               '8.184E-01  2.792E+00  5.007E-04  6.646E-04 -4.467E-06\n',
               '-   1    4   68     1    68    1.2233E+00  6.5995E-04   '
               '1.2227E+00  0.000E+00  0.000E+00  0.000E+00  1.20568E+02  '
               '8.182E-01  2.791E+00  5.006E-04  6.632E-04 -3.222E-06\n',
               '-   1    4   69     1    69    1.2227E+00  6.5975E-04   '
               '1.2220E+00  0.000E+00  0.000E+00  0.000E+00  1.20268E+02  '
               '8.180E-01  2.791E+00  5.005E-04  6.618E-04 -2.013E-06\n',
               '-   1    4   70     1    70    1.2220E+00  6.5955E-04   '
               '1.2213E+00  0.000E+00  0.000E+00  0.000E+00  1.19968E+02  '
               '8.178E-01  2.791E+00  5.005E-04  6.604E-04 -8.485E-07\n',
               '-   1    4   71     1    71    1.2213E+00  6.5934E-04   '
               '1.2207E+00  0.000E+00  0.000E+00  0.000E+00  1.19668E+02  '
               '8.175E-01  2.791E+00  5.004E-04  6.591E-04  2.637E-07\n',
               '-   1    4   72     1    72    1.2207E+00  6.5914E-04   '
               '1.2200E+00  0.000E+00  0.000E+00  0.000E+00  1.19367E+02  '
               '8.173E-01  2.790E+00  5.003E-04  6.578E-04  1.316E-06\n',
               '-   1    4   73     1    73    1.2200E+00  6.5893E-04   '
               '1.2194E+00  0.000E+00  0.000E+00  0.000E+00  1.19067E+02  '
               '8.171E-01  2.790E+00  5.003E-04  6.566E-04  2.301E-06\n',
               '-   1    4   74     1    74    1.2194E+00  6.5873E-04   '
               '1.2187E+00  0.000E+00  0.000E+00  0.000E+00  1.18767E+02  '
               '8.169E-01  2.790E+00  5.002E-04  6.555E-04  3.210E-06\n',
               '-   1    4   75     1    75    1.2187E+00  6.5852E-04   '
               '1.2180E+00  0.000E+00  0.000E+00  0.000E+00  1.18467E+02  '
               '8.167E-01  2.790E+00  5.001E-04  6.545E-04  4.036E-06\n',
               '-   1    4   76     1    76    1.2180E+00  6.5832E-04   '
               '1.2174E+00  0.000E+00  0.000E+00  0.000E+00  1.18166E+02  '
               '8.164E-01  2.789E+00  5.000E-04  6.535E-04  4.771E-06\n',
               '-   1    4   77     1    77    1.2174E+00  6.5811E-04   '
               '1.2167E+00  0.000E+00  0.000E+00  0.000E+00  1.17866E+02  '
               '8.162E-01  2.789E+00  5.000E-04  6.527E-04  5.410E-06\n',
               '-   1    4   78     1    78    1.2167E+00  6.5791E-04   '
               '1.2161E+00  0.000E+00  0.000E+00  0.000E+00  1.17566E+02  '
               '8.160E-01  2.789E+00  4.999E-04  6.571E-04  8.460E-07\n',
               '-   1    4   79     1    79    1.2161E+00  6.5770E-04   '
               '1.2154E+00  0.000E+00  0.000E+00  0.000E+00  1.17266E+02  '
               '8.158E-01  2.789E+00  4.998E-04  6.617E-04 -4.001E-06\n',
               '-   1    4   80     1    80    1.2154E+00  6.5750E-04   '
               '1.2148E+00  0.000E+00  0.000E+00  0.000E+00  1.16966E+02  '
               '8.156E-01  2.788E+00  4.998E-04  6.613E-04 -3.752E-06\n',
               '-   1    4   81     1    81    1.2148E+00  6.5730E-04   '
               '1.2141E+00  0.000E+00  0.000E+00  0.000E+00  1.16665E+02  '
               '8.153E-01  2.788E+00  4.997E-04  6.609E-04 -3.645E-06\n',
               '-   1    4   82     1    82    1.2141E+00  6.5709E-04   '
               '1.2134E+00  0.000E+00  0.000E+00  0.000E+00  1.16365E+02  '
               '8.151E-01  2.788E+00  4.996E-04  6.652E-04 -8.066E-06\n',
               '-   1    4   83     1    83    1.2134E+00  6.5689E-04   '
               '1.2128E+00  0.000E+00  0.000E+00  0.000E+00  1.16065E+02  '
               '8.149E-01  2.787E+00  4.995E-04  6.680E-04 -1.111E-05\n',
               '-   1    4   84     1    84    1.2128E+00  6.5668E-04   '
               '1.2121E+00  0.000E+00  0.000E+00  0.000E+00  1.15765E+02  '
               '8.147E-01  2.787E+00  4.995E-04  6.682E-04 -1.150E-05\n',
               '-   1    4   85     1    85    1.2121E+00  6.5648E-04   '
               '1.2115E+00  0.000E+00  0.000E+00  0.000E+00  1.15464E+02  '
               '8.145E-01  2.787E+00  4.994E-04  6.686E-04 -1.210E-05\n',
               '-   1    4   86     1    86    1.2115E+00  6.5628E-04   '
               '1.2108E+00  0.000E+00  0.000E+00  0.000E+00  1.15164E+02  '
               '8.142E-01  2.787E+00  4.993E-04  6.692E-04 -1.291E-05\n',
               '-   1    4   87     1    87    1.2108E+00  6.5607E-04   '
               '1.2102E+00  0.000E+00  0.000E+00  0.000E+00  1.14864E+02  '
               '8.140E-01  2.786E+00  4.992E-04  6.700E-04 -1.396E-05\n',
               '-   1    4   88     1    88    1.2102E+00  6.5587E-04   '
               '1.2095E+00  0.000E+00  0.000E+00  0.000E+00  1.14564E+02  '
               '8.138E-01  2.786E+00  4.992E-04  6.803E-04 -2.447E-05\n',
               '-   1    4   89     1    89    1.2095E+00  6.5566E-04   '
               '1.2088E+00  0.000E+00  0.000E+00  0.000E+00  1.14264E+02  '
               '8.136E-01  2.786E+00  4.991E-04  6.846E-04 -2.898E-05\n',
               '-   1    4   90     1    90    1.2088E+00  6.5546E-04   '
               '1.2082E+00  0.000E+00  0.000E+00  0.000E+00  1.13963E+02  '
               '8.134E-01  2.786E+00  4.990E-04  6.863E-04 -3.086E-05\n',
               '-   1    4   91     1    91    1.2082E+00  6.5526E-04   '
               '1.2075E+00  0.000E+00  0.000E+00  0.000E+00  1.13663E+02  '
               '8.131E-01  2.785E+00  4.990E-04  6.883E-04 -3.304E-05\n',
               '-   1    4   92     1    92    1.2075E+00  6.5505E-04   '
               '1.2069E+00  0.000E+00  0.000E+00  0.000E+00  1.13363E+02  '
               '8.129E-01  2.785E+00  4.989E-04  6.906E-04 -3.550E-05\n',
               '-   1    4   93     1    93    1.2069E+00  6.5485E-04   '
               '1.2062E+00  0.000E+00  0.000E+00  0.000E+00  1.13063E+02  '
               '8.127E-01  2.785E+00  4.988E-04  7.029E-04 -4.806E-05\n',
               '-   1    4   94     1    94    1.2062E+00  6.5465E-04   '
               '1.2056E+00  0.000E+00  0.000E+00  0.000E+00  1.12762E+02  '
               '8.125E-01  2.785E+00  4.987E-04  7.059E-04 -5.123E-05\n',
               '-   1    4   95     1    95    1.2056E+00  6.5444E-04   '
               '1.2049E+00  0.000E+00  0.000E+00  0.000E+00  1.12462E+02  '
               '8.123E-01  2.784E+00  4.987E-04  7.092E-04 -5.476E-05\n',
               '-   1    4   96     1    96    1.2049E+00  6.5424E-04   '
               '1.2043E+00  0.000E+00  0.000E+00  0.000E+00  1.12162E+02  '
               '8.120E-01  2.784E+00  4.986E-04  7.129E-04 -5.864E-05\n',
               '-   1    4   97     1    97    1.2043E+00  6.5404E-04   '
               '1.2036E+00  0.000E+00  0.000E+00  0.000E+00  1.11862E+02  '
               '8.118E-01  2.784E+00  4.985E-04  7.227E-04 -6.864E-05\n',
               '-   1    4   98     1    98    1.2036E+00  6.5383E-04   '
               '1.2030E+00  0.000E+00  0.000E+00  0.000E+00  1.11562E+02  '
               '8.116E-01  2.784E+00  4.985E-04  7.425E-04 -8.864E-05\n',
               '-   1    4   99     1    99    1.2030E+00  6.5363E-04   '
               '1.2023E+00  0.000E+00  0.000E+00  0.000E+00  1.11261E+02  '
               '8.114E-01  2.783E+00  4.984E-04  7.616E-04 -1.080E-04\n',
               '-   1    4  100     1   100    1.2023E+00  6.5343E-04   '
               '1.2016E+00  0.000E+00  0.000E+00  0.000E+00  1.10961E+02  '
               '8.112E-01  2.783E+00  4.983E-04  7.726E-04 -1.192E-04\n',
               '-\n',
               '-\n',
               '-\n',
               '-1\n',
               '-  VOLUMETRIC BUDGET FOR UNSATURATED ZONE BENEATH STREAMS AT '
               'END OF TIME STEP    30 STRESS PERIOD  13\n',
               '-  '
               '------------------------------------------------------------------------------------------------\n',
               '-\n',
               '-    CUMULATIVE VOLUMES             L**3    RATES FOR THIS '
               'TIME STEP         L**3/T\n',
               '-    ------------------                     '
               '------------------------\n',
               '-\n',
               '-\n',
               '-          STREAM LOSS =     13207079.0000            STREAM '
               'LOSS =        6.6357E-02\n',
               '-    CHANGE IN STORAGE =       394637.0000      CHANGE IN '
               'STORAGE =       -4.2071E-03\n',
               '-       RECHARGE TO GW =     12815328.0000         RECHARGE TO '
               'GW =        7.0564E-02\n',
               '-\n',
               '-             TOTAL IN =     13207079.0000               TOTAL '
               'IN =        7.0564E-02\n',
               '-\n',
               '-            TOTAL OUT =     13209965.0000              TOTAL '
               'OUT =        7.0564E-02\n',
               '-\n',
               '-             IN - OUT =        -2886.0000               IN - '
               'OUT =        9.6858E-08\n',
               '-\n',
               '-  PERCENT DISCREPANCY =           -0.01      PERCENT '
               'DISCREPANCY =             0.00\n',
               '-\n',
               '-\n',
               '-\n',
               '-1\n',
               '-  VOLUMETRIC BUDGET FOR ENTIRE MODEL AT END OF TIME STEP   '
               '30, STRESS PERIOD  13\n',
               '-  '
               '------------------------------------------------------------------------------\n',
               '-\n',
               '-     CUMULATIVE VOLUMES      L**3       RATES FOR THIS TIME '
               'STEP      L**3/T\n',
               '-     ------------------                 '
               '------------------------\n',
               '-\n',
               '-           IN:                                      IN:\n',
               '-           ---                                      ---\n',
               '-             STORAGE =     9338405.0000               STORAGE '
               '=           0.2041\n',
               '-       CONSTANT HEAD =           0.0000         CONSTANT HEAD '
               '=           0.0000\n',
               '-     HEAD DEP BOUNDS =           0.0000       HEAD DEP BOUNDS '
               '=           0.0000\n',
               '-      STREAM LEAKAGE =    12815351.0000        STREAM LEAKAGE '
               '=       7.0564E-02\n',
               '-\n',
               '-            TOTAL IN =    22153756.0000              TOTAL IN '
               '=           0.2746\n',
               '-\n',
               '-          OUT:                                     OUT:\n',
               '-          ----                                     ----\n',
               '-             STORAGE =     7447388.0000               STORAGE '
               '=       1.5591E-02\n',
               '-       CONSTANT HEAD =           0.0000         CONSTANT HEAD '
               '=           0.0000\n',
               '-     HEAD DEP BOUNDS =    14706401.0000       HEAD DEP BOUNDS '
               '=           0.2589\n',
               '-      STREAM LEAKAGE =           0.0000        STREAM LEAKAGE '
               '=           0.0000\n',
               '-\n',
               '-           TOTAL OUT =    22153788.0000             TOTAL OUT '
               '=           0.2745\n',
               '-\n',
               '-            IN - OUT =         -32.0000              IN - OUT '
               '=       1.4892E-04\n',
               '-\n',
               '- PERCENT DISCREPANCY =          -0.00     PERCENT DISCREPANCY '
               '=           0.05\n',
               '-\n',
               '-\n',
               '-\n',
               '-\n',
               '-\n',
               '-\n',
               '-         TIME SUMMARY AT END OF TIME STEP   30 IN STRESS '
               'PERIOD   13\n',
               '-                    SECONDS     MINUTES      HOURS       '
               'DAYS        YEARS\n',
               '-                    '
               '-----------------------------------------------------------\n',
               '-   TIME STEP LENGTH 2.49961E+05  4166.0      69.434      '
               '2.8931     7.92080E-03\n',
               '- STRESS PERIOD TIME 2.59200E+06  43200.      720.00      '
               '30.000     8.21355E-02\n',
               '-         TOTAL TIME 3.36960E+07 5.61600E+05  9360.0      '
               '390.00      1.0678    \n',
               '-1\n',
               '-1\n',
               '-                            STRESS PERIOD NO.   14, LENGTH '
               '=   2592000.    \n',
               '-                            '
               '-----------------------------------------------\n',
               '-\n',
               '-                              NUMBER OF TIME STEPS =    30\n',
               '-\n',
               '-                               MULTIPLIER FOR DELT =     '
               '1.100\n',
               '-\n',
               '-                            INITIAL TIME STEP SIZE =   '
               '15757.40    \n',
               '-\n',
               '- REUSING NON-PARAMETER GHB CELLS FROM LAST STRESS PERIOD\n',
               '-\n',
               '-      7 GHB CELLS\n',
               '- \n',
               '- SOLVING FOR HEAD \n',
               '-\n',
               '- NO OUTPUT CONTROL FOR STRESS PERIOD   14   TIME STEP    1\n',
               '- \n',
               '- SOLVING FOR HEAD \n',
               '-\n',
               '- NO OUTPUT CONTROL FOR STRESS PERIOD   14   TIME STEP    2\n',
               '- \n',
               '- SOLVING FOR HEAD \n',
               '-\n',
               '- NO OUTPUT CONTROL FOR STRESS PERIOD   14   TIME STEP    3\n',
               '- \n',
               '- SOLVING FOR HEAD \n',
               '-\n',
               '- NO OUTPUT CONTROL FOR STRESS PERIOD   14   TIME STEP    4\n',
               '- \n',
               '- SOLVING FOR HEAD \n',
               '-\n',
               '- NO OUTPUT CONTROL FOR STRESS PERIOD   14   TIME STEP    5\n',
               '- \n',
               '- SOLVING FOR HEAD \n',
               '-\n',
               '- NO OUTPUT CONTROL FOR STRESS PERIOD   14   TIME STEP    6\n',
               '- \n',
               '- SOLVING FOR HEAD \n',
               '-\n',
               '- NO OUTPUT CONTROL FOR STRESS PERIOD   14   TIME STEP    7\n',
               '- \n',
               '- SOLVING FOR HEAD \n',
               '-\n',
               '- NO OUTPUT CONTROL FOR STRESS PERIOD   14   TIME STEP    8\n',
               '- \n',
               '- SOLVING FOR HEAD \n',
               '-\n',
               '- NO OUTPUT CONTROL FOR STRESS PERIOD   14   TIME STEP    9\n',
               '- \n',
               '- SOLVING FOR HEAD \n',
               '-\n',
               '- NO OUTPUT CONTROL FOR STRESS PERIOD   14   TIME STEP   10\n',
               '- \n',
               '- SOLVING FOR HEAD \n',
               '-\n',
               '- NO OUTPUT CONTROL FOR STRESS PERIOD   14   TIME STEP   11\n',
               '- \n',
               '- SOLVING FOR HEAD \n',
               '-\n',
               '- NO OUTPUT CONTROL FOR STRESS PERIOD   14   TIME STEP   12\n',
               '- \n',
               '- SOLVING FOR HEAD \n',
               '-\n',
               '- NO OUTPUT CONTROL FOR STRESS PERIOD   14   TIME STEP   13\n',
               '- \n',
               '- SOLVING FOR HEAD \n',
               '-\n',
               '- NO OUTPUT CONTROL FOR STRESS PERIOD   14   TIME STEP   14\n',
               '- \n',
               '- SOLVING FOR HEAD \n',
               '-\n',
               '- NO OUTPUT CONTROL FOR STRESS PERIOD   14   TIME STEP   15\n',
               '- \n',
               '- SOLVING FOR HEAD \n',
               '-\n',
               '- NO OUTPUT CONTROL FOR STRESS PERIOD   14   TIME STEP   16\n',
               '- \n',
               '- SOLVING FOR HEAD \n',
               '-\n',
               '- NO OUTPUT CONTROL FOR STRESS PERIOD   14   TIME STEP   17\n',
               '- \n',
               '- SOLVING FOR HEAD \n',
               '-\n',
               '- NO OUTPUT CONTROL FOR STRESS PERIOD   14   TIME STEP   18\n',
               '- \n',
               '- SOLVING FOR HEAD \n',
               '-\n',
               '- NO OUTPUT CONTROL FOR STRESS PERIOD   14   TIME STEP   19\n',
               '- \n',
               '- SOLVING FOR HEAD \n',
               '-\n',
               '- NO OUTPUT CONTROL FOR STRESS PERIOD   14   TIME STEP   20\n',
               '- \n',
               '- SOLVING FOR HEAD \n',
               '-\n',
               '- NO OUTPUT CONTROL FOR STRESS PERIOD   14   TIME STEP   21\n',
               '- \n',
               '- SOLVING FOR HEAD \n',
               '-\n',
               '- NO OUTPUT CONTROL FOR STRESS PERIOD   14   TIME STEP   22\n',
               '- \n',
               '- SOLVING FOR HEAD \n',
               '-\n',
               '- NO OUTPUT CONTROL FOR STRESS PERIOD   14   TIME STEP   23\n',
               '- \n',
               '- SOLVING FOR HEAD \n',
               '-\n',
               '- NO OUTPUT CONTROL FOR STRESS PERIOD   14   TIME STEP   24\n',
               '- \n',
               '- SOLVING FOR HEAD \n',
               '-\n',
               '- NO OUTPUT CONTROL FOR STRESS PERIOD   14   TIME STEP   25\n',
               '- \n',
               '- SOLVING FOR HEAD \n',
               '-\n',
               '- NO OUTPUT CONTROL FOR STRESS PERIOD   14   TIME STEP   26\n',
               '- \n',
               '- SOLVING FOR HEAD \n',
               '-\n',
               '- NO OUTPUT CONTROL FOR STRESS PERIOD   14   TIME STEP   27\n',
               '- \n',
               '- SOLVING FOR HEAD \n',
               '-\n',
               '- NO OUTPUT CONTROL FOR STRESS PERIOD   14   TIME STEP   28\n',
               '- \n',
               '- SOLVING FOR HEAD \n',
               '-\n',
               '- NO OUTPUT CONTROL FOR STRESS PERIOD   14   TIME STEP   29\n',
               '- \n',
               '- SOLVING FOR HEAD \n',
               '-\n',
               '- NO OUTPUT CONTROL FOR STRESS PERIOD   14   TIME STEP   30\n',
               '-\n',
               '-\n',
               '-\n',
               '- STREAM LISTING     PERIOD     14   STEP       30\n',
               '-\n',
               '- LAYER ROW COL. STREAM  RCH.   FLOW INTO    STREAM     FLOW '
               'OUT OF   OVRLND.    DIRECT     STREAM      STREAM      '
               'STREAM     STREAM  STREAMBED   FLOW TO   CHNG. UNSAT. \n',
               '-                SEG.NO.  NO.   STRM. RCH.    LOSS       STRM. '
               'RCH.   RUNOFF     PRECIP       ET         HEAD        '
               'DEPTH      WIDTH  CONDCTNC.   WAT. TAB.\n',
               '-\n',
               '-   1    4    1     1     1    3.3500E+00  1.2733E-03   '
               '3.3487E+00  0.000E+00  0.000E+00  0.000E+00  1.41220E+02  '
               '1.370E+00  3.452E+00  6.808E-04  1.343E-03 -7.004E-05\n',
               '-   1    4    2     1     2    3.3487E+00  1.2729E-03   '
               '3.3474E+00  0.000E+00  0.000E+00  0.000E+00  1.40920E+02  '
               '1.370E+00  3.452E+00  6.808E-04  1.343E-03 -6.992E-05\n',
               '-   1    4    3     1     3    3.3474E+00  1.2726E-03   '
               '3.3462E+00  0.000E+00  0.000E+00  0.000E+00  1.40620E+02  '
               '1.370E+00  3.452E+00  6.807E-04  1.342E-03 -6.979E-05\n',
               '-   1    4    4     1     4    3.3462E+00  1.2723E-03   '
               '3.3449E+00  0.000E+00  0.000E+00  0.000E+00  1.40320E+02  '
               '1.370E+00  3.451E+00  6.806E-04  1.342E-03 -6.965E-05\n',
               '-   1    4    5     1     5    3.3449E+00  1.2719E-03   '
               '3.3436E+00  0.000E+00  0.000E+00  0.000E+00  1.40019E+02  '
               '1.369E+00  3.451E+00  6.805E-04  1.341E-03 -6.950E-05\n',
               '-   1    4    6     1     6    3.3436E+00  1.2716E-03   '
               '3.3423E+00  0.000E+00  0.000E+00  0.000E+00  1.39719E+02  '
               '1.369E+00  3.451E+00  6.804E-04  1.341E-03 -6.934E-05\n',
               '-   1    4    7     1     7    3.3423E+00  1.2712E-03   '
               '3.3411E+00  0.000E+00  0.000E+00  0.000E+00  1.39419E+02  '
               '1.369E+00  3.450E+00  6.803E-04  1.340E-03 -6.917E-05\n',
               '-   1    4    8     1     8    3.3411E+00  1.2709E-03   '
               '3.3398E+00  0.000E+00  0.000E+00  0.000E+00  1.39119E+02  '
               '1.369E+00  3.450E+00  6.802E-04  1.340E-03 -6.899E-05\n',
               '-   1    4    9     1     9    3.3398E+00  1.2705E-03   '
               '3.3385E+00  0.000E+00  0.000E+00  0.000E+00  1.38818E+02  '
               '1.368E+00  3.450E+00  6.801E-04  1.339E-03 -6.880E-05\n',
               '-   1    4   10     1    10    3.3385E+00  1.2702E-03   '
               '3.3373E+00  0.000E+00  0.000E+00  0.000E+00  1.38518E+02  '
               '1.368E+00  3.449E+00  6.801E-04  1.339E-03 -6.859E-05\n',
               '-   1    4   11     1    11    3.3373E+00  1.2698E-03   '
               '3.3360E+00  0.000E+00  0.000E+00  0.000E+00  1.38218E+02  '
               '1.368E+00  3.449E+00  6.800E-04  1.338E-03 -6.837E-05\n',
               '-   1    4   12     1    12    3.3360E+00  1.2695E-03   '
               '3.3347E+00  0.000E+00  0.000E+00  0.000E+00  1.37918E+02  '
               '1.368E+00  3.449E+00  6.799E-04  1.338E-03 -6.814E-05\n',
               '-   1    4   13     1    13    3.3347E+00  1.2691E-03   '
               '3.3335E+00  0.000E+00  0.000E+00  0.000E+00  1.37617E+02  '
               '1.367E+00  3.448E+00  6.798E-04  1.337E-03 -6.790E-05\n',
               '-   1    4   14     1    14    3.3335E+00  1.2688E-03   '
               '3.3322E+00  0.000E+00  0.000E+00  0.000E+00  1.37317E+02  '
               '1.367E+00  3.448E+00  6.797E-04  1.336E-03 -6.763E-05\n',
               '-   1    4   15     1    15    3.3322E+00  1.2684E-03   '
               '3.3309E+00  0.000E+00  0.000E+00  0.000E+00  1.37017E+02  '
               '1.367E+00  3.448E+00  6.796E-04  1.336E-03 -6.735E-05\n',
               '-   1    4   16     1    16    3.3309E+00  1.2681E-03   '
               '3.3297E+00  0.000E+00  0.000E+00  0.000E+00  1.36716E+02  '
               '1.366E+00  3.447E+00  6.795E-04  1.335E-03 -6.709E-05\n',
               '-   1    4   17     1    17    3.3297E+00  1.2677E-03   '
               '3.3284E+00  0.000E+00  0.000E+00  0.000E+00  1.36416E+02  '
               '1.366E+00  3.447E+00  6.794E-04  1.329E-03 -6.136E-05\n',
               '-   1    4   18     1    18    3.3284E+00  1.2674E-03   '
               '3.3271E+00  0.000E+00  0.000E+00  0.000E+00  1.36116E+02  '
               '1.366E+00  3.447E+00  6.793E-04  1.323E-03 -5.563E-05\n',
               '-   1    4   19     1    19    3.3271E+00  1.2670E-03   '
               '3.3258E+00  0.000E+00  0.000E+00  0.000E+00  1.35816E+02  '
               '1.366E+00  3.446E+00  6.793E-04  1.321E-03 -5.400E-05\n',
               '-   1    4   20     1    20    3.3258E+00  1.2667E-03   '
               '3.3246E+00  0.000E+00  0.000E+00  0.000E+00  1.35515E+02  '
               '1.365E+00  3.446E+00  6.792E-04  1.320E-03 -5.366E-05\n',
               '-   1    4   21     1    21    3.3246E+00  1.2663E-03   '
               '3.3233E+00  0.000E+00  0.000E+00  0.000E+00  1.35215E+02  '
               '1.365E+00  3.446E+00  6.791E-04  1.320E-03 -5.329E-05\n',
               '-   1    4   22     1    22    3.3233E+00  1.2660E-03   '
               '3.3220E+00  0.000E+00  0.000E+00  0.000E+00  1.34915E+02  '
               '1.365E+00  3.445E+00  6.790E-04  1.319E-03 -5.289E-05\n',
               '-   1    4   23     1    23    3.3220E+00  1.2656E-03   '
               '3.3208E+00  0.000E+00  0.000E+00  0.000E+00  1.34615E+02  '
               '1.365E+00  3.445E+00  6.789E-04  1.318E-03 -5.247E-05\n',
               '-   1    4   24     1    24    3.3208E+00  1.2653E-03   '
               '3.3195E+00  0.000E+00  0.000E+00  0.000E+00  1.34314E+02  '
               '1.364E+00  3.445E+00  6.788E-04  1.317E-03 -5.203E-05\n',
               '-   1    4   25     1    25    3.3195E+00  1.2649E-03   '
               '3.3183E+00  0.000E+00  0.000E+00  0.000E+00  1.34014E+02  '
               '1.364E+00  3.444E+00  6.787E-04  1.317E-03 -5.156E-05\n',
               '-   1    4   26     1    26    3.3183E+00  1.2646E-03   '
               '3.3170E+00  0.000E+00  0.000E+00  0.000E+00  1.33714E+02  '
               '1.364E+00  3.444E+00  6.786E-04  1.316E-03 -5.107E-05\n',
               '-   1    4   27     1    27    3.3170E+00  1.2642E-03   '
               '3.3157E+00  0.000E+00  0.000E+00  0.000E+00  1.33413E+02  '
               '1.363E+00  3.444E+00  6.786E-04  1.315E-03 -5.055E-05\n',
               '-   1    4   28     1    28    3.3157E+00  1.2639E-03   '
               '3.3145E+00  0.000E+00  0.000E+00  0.000E+00  1.33113E+02  '
               '1.363E+00  3.443E+00  6.785E-04  1.314E-03 -5.001E-05\n',
               '-   1    4   29     1    29    3.3145E+00  1.2635E-03   '
               '3.3132E+00  0.000E+00  0.000E+00  0.000E+00  1.32813E+02  '
               '1.363E+00  3.443E+00  6.784E-04  1.313E-03 -4.943E-05\n',
               '-   1    4   30     1    30    3.3132E+00  1.2632E-03   '
               '3.3119E+00  0.000E+00  0.000E+00  0.000E+00  1.32513E+02  '
               '1.363E+00  3.443E+00  6.783E-04  1.312E-03 -4.882E-05\n',
               '-   1    4   31     1    31    3.3119E+00  1.2629E-03   '
               '3.3107E+00  0.000E+00  0.000E+00  0.000E+00  1.32212E+02  '
               '1.362E+00  3.442E+00  6.782E-04  1.311E-03 -4.818E-05\n',
               '-   1    4   32     1    32    3.3107E+00  1.2625E-03   '
               '3.3094E+00  0.000E+00  0.000E+00  0.000E+00  1.31912E+02  '
               '1.362E+00  3.442E+00  6.781E-04  1.310E-03 -4.751E-05\n',
               '-   1    4   33     1    33    3.3094E+00  1.2622E-03   '
               '3.3081E+00  0.000E+00  0.000E+00  0.000E+00  1.31612E+02  '
               '1.362E+00  3.442E+00  6.780E-04  1.309E-03 -4.680E-05\n',
               '-   1    4   34     1    34    3.3081E+00  1.2618E-03   '
               '3.3069E+00  0.000E+00  0.000E+00  0.000E+00  1.31312E+02  '
               '1.362E+00  3.442E+00  6.779E-04  1.308E-03 -4.606E-05\n',
               '-   1    4   35     1    35    3.3069E+00  1.2615E-03   '
               '3.3056E+00  0.000E+00  0.000E+00  0.000E+00  1.31011E+02  '
               '1.361E+00  3.441E+00  6.779E-04  1.303E-03 -4.125E-05\n',
               '-   1    4   36     1    36    3.3056E+00  1.2611E-03   '
               '3.3044E+00  0.000E+00  0.000E+00  0.000E+00  1.30711E+02  '
               '1.361E+00  3.441E+00  6.778E-04  1.296E-03 -3.447E-05\n',
               '-   1    4   37     1    37    3.3044E+00  1.2608E-03   '
               '3.3031E+00  0.000E+00  0.000E+00  0.000E+00  1.30411E+02  '
               '1.361E+00  3.441E+00  6.777E-04  1.294E-03 -3.368E-05\n',
               '-   1    4   38     1    38    3.3031E+00  1.2604E-03   '
               '3.3018E+00  0.000E+00  0.000E+00  0.000E+00  1.30111E+02  '
               '1.360E+00  3.440E+00  6.776E-04  1.293E-03 -3.286E-05\n',
               '-   1    4   39     1    39    3.3018E+00  1.2601E-03   '
               '3.3006E+00  0.000E+00  0.000E+00  0.000E+00  1.29810E+02  '
               '1.360E+00  3.440E+00  6.775E-04  1.292E-03 -3.201E-05\n',
               '-   1    4   40     1    40    3.3006E+00  1.2597E-03   '
               '3.2993E+00  0.000E+00  0.000E+00  0.000E+00  1.29510E+02  '
               '1.360E+00  3.440E+00  6.774E-04  1.291E-03 -3.111E-05\n',
               '-   1    4   41     1    41    3.2993E+00  1.2594E-03   '
               '3.2981E+00  0.000E+00  0.000E+00  0.000E+00  1.29210E+02  '
               '1.360E+00  3.439E+00  6.773E-04  1.290E-03 -3.019E-05\n',
               '-   1    4   42     1    42    3.2981E+00  1.2590E-03   '
               '3.2968E+00  0.000E+00  0.000E+00  0.000E+00  1.28909E+02  '
               '1.359E+00  3.439E+00  6.772E-04  1.288E-03 -2.923E-05\n',
               '-   1    4   43     1    43    3.2968E+00  1.2587E-03   '
               '3.2955E+00  0.000E+00  0.000E+00  0.000E+00  1.28609E+02  '
               '1.359E+00  3.439E+00  6.771E-04  1.287E-03 -2.823E-05\n',
               '-   1    4   44     1    44    3.2955E+00  1.2584E-03   '
               '3.2943E+00  0.000E+00  0.000E+00  0.000E+00  1.28309E+02  '
               '1.359E+00  3.438E+00  6.771E-04  1.286E-03 -2.721E-05\n',
               '-   1    4   45     1    45    3.2943E+00  1.2580E-03   '
               '3.2930E+00  0.000E+00  0.000E+00  0.000E+00  1.28009E+02  '
               '1.359E+00  3.438E+00  6.770E-04  1.284E-03 -2.614E-05\n',
               '-   1    4   46     1    46    3.2930E+00  1.2577E-03   '
               '3.2918E+00  0.000E+00  0.000E+00  0.000E+00  1.27708E+02  '
               '1.358E+00  3.438E+00  6.769E-04  1.280E-03 -2.199E-05\n',
               '-   1    4   47     1    47    3.2918E+00  1.2573E-03   '
               '3.2905E+00  0.000E+00  0.000E+00  0.000E+00  1.27408E+02  '
               '1.358E+00  3.437E+00  6.768E-04  1.275E-03 -1.777E-05\n',
               '-   1    4   48     1    48    3.2905E+00  1.2570E-03   '
               '3.2893E+00  0.000E+00  0.000E+00  0.000E+00  1.27108E+02  '
               '1.358E+00  3.437E+00  6.767E-04  1.273E-03 -1.607E-05\n',
               '-   1    4   49     1    49    3.2893E+00  1.2566E-03   '
               '3.2880E+00  0.000E+00  0.000E+00  0.000E+00  1.26808E+02  '
               '1.358E+00  3.437E+00  6.766E-04  1.272E-03 -1.496E-05\n',
               '-   1    4   50     1    50    3.2880E+00  1.2563E-03   '
               '3.2867E+00  0.000E+00  0.000E+00  0.000E+00  1.26507E+02  '
               '1.357E+00  3.436E+00  6.765E-04  1.270E-03 -1.383E-05\n',
               '-   1    4   51     1    51    3.2867E+00  1.2559E-03   '
               '3.2855E+00  0.000E+00  0.000E+00  0.000E+00  1.26207E+02  '
               '1.357E+00  3.436E+00  6.764E-04  1.269E-03 -1.268E-05\n',
               '-   1    4   52     1    52    3.2855E+00  1.2556E-03   '
               '3.2842E+00  0.000E+00  0.000E+00  0.000E+00  1.25907E+02  '
               '1.357E+00  3.436E+00  6.764E-04  1.267E-03 -1.150E-05\n',
               '-   1    4   53     1    53    3.2842E+00  1.2552E-03   '
               '3.2830E+00  0.000E+00  0.000E+00  0.000E+00  1.25606E+02  '
               '1.356E+00  3.435E+00  6.763E-04  1.266E-03 -1.031E-05\n',
               '-   1    4   54     1    54    3.2830E+00  1.2549E-03   '
               '3.2817E+00  0.000E+00  0.000E+00  0.000E+00  1.25306E+02  '
               '1.356E+00  3.435E+00  6.762E-04  1.264E-03 -9.093E-06\n',
               '-   1    4   55     1    55    3.2817E+00  1.2546E-03   '
               '3.2805E+00  0.000E+00  0.000E+00  0.000E+00  1.25006E+02  '
               '1.356E+00  3.435E+00  6.761E-04  1.262E-03 -7.866E-06\n',
               '-   1    4   56     1    56    3.2805E+00  1.2542E-03   '
               '3.2792E+00  0.000E+00  0.000E+00  0.000E+00  1.24706E+02  '
               '1.356E+00  3.434E+00  6.760E-04  1.261E-03 -6.624E-06\n',
               '-   1    4   57     1    57    3.2792E+00  1.2539E-03   '
               '3.2780E+00  0.000E+00  0.000E+00  0.000E+00  1.24405E+02  '
               '1.355E+00  3.434E+00  6.759E-04  1.259E-03 -5.373E-06\n',
               '-   1    4   58     1    58    3.2780E+00  1.2535E-03   '
               '3.2767E+00  0.000E+00  0.000E+00  0.000E+00  1.24105E+02  '
               '1.355E+00  3.434E+00  6.758E-04  1.258E-03 -4.117E-06\n',
               '-   1    4   59     1    59    3.2767E+00  1.2532E-03   '
               '3.2755E+00  0.000E+00  0.000E+00  0.000E+00  1.23805E+02  '
               '1.355E+00  3.433E+00  6.757E-04  1.256E-03 -2.859E-06\n',
               '-   1    4   60     1    60    3.2755E+00  1.2528E-03   '
               '3.2742E+00  0.000E+00  0.000E+00  0.000E+00  1.23505E+02  '
               '1.355E+00  3.433E+00  6.757E-04  1.254E-03 -1.601E-06\n',
               '-   1    4   61     1    61    3.2742E+00  1.2525E-03   '
               '3.2729E+00  0.000E+00  0.000E+00  0.000E+00  1.23204E+02  '
               '1.354E+00  3.433E+00  6.756E-04  1.253E-03 -3.481E-07\n',
               '-   1    4   62     1    62    3.2729E+00  1.2521E-03   '
               '3.2717E+00  0.000E+00  0.000E+00  0.000E+00  1.22904E+02  '
               '1.354E+00  3.433E+00  6.755E-04  1.251E-03  8.957E-07\n',
               '-   1    4   63     1    63    3.2717E+00  1.2518E-03   '
               '3.2704E+00  0.000E+00  0.000E+00  0.000E+00  1.22604E+02  '
               '1.354E+00  3.432E+00  6.754E-04  1.250E-03  2.124E-06\n',
               '-   1    4   64     1    64    3.2704E+00  1.2515E-03   '
               '3.2692E+00  0.000E+00  0.000E+00  0.000E+00  1.22303E+02  '
               '1.353E+00  3.432E+00  6.753E-04  1.248E-03  3.334E-06\n',
               '-   1    4   65     1    65    3.2692E+00  1.2511E-03   '
               '3.2679E+00  0.000E+00  0.000E+00  0.000E+00  1.22003E+02  '
               '1.353E+00  3.432E+00  6.752E-04  1.247E-03  4.522E-06\n',
               '-   1    4   66     1    66    3.2679E+00  1.2508E-03   '
               '3.2667E+00  0.000E+00  0.000E+00  0.000E+00  1.21703E+02  '
               '1.353E+00  3.431E+00  6.751E-04  1.245E-03  5.680E-06\n',
               '-   1    4   67     1    67    3.2667E+00  1.2504E-03   '
               '3.2654E+00  0.000E+00  0.000E+00  0.000E+00  1.21403E+02  '
               '1.353E+00  3.431E+00  6.750E-04  1.244E-03  6.809E-06\n',
               '-   1    4   68     1    68    3.2654E+00  1.2501E-03   '
               '3.2642E+00  0.000E+00  0.000E+00  0.000E+00  1.21102E+02  '
               '1.352E+00  3.431E+00  6.750E-04  1.244E-03  6.356E-06\n',
               '-   1    4   69     1    69    3.2642E+00  1.2497E-03   '
               '3.2629E+00  0.000E+00  0.000E+00  0.000E+00  1.20802E+02  '
               '1.352E+00  3.430E+00  6.749E-04  1.246E-03  3.556E-06\n',
               '-   1    4   70     1    70    3.2629E+00  1.2494E-03   '
               '3.2617E+00  0.000E+00  0.000E+00  0.000E+00  1.20502E+02  '
               '1.352E+00  3.430E+00  6.748E-04  1.245E-03  4.587E-06\n',
               '-   1    4   71     1    71    3.2617E+00  1.2490E-03   '
               '3.2604E+00  0.000E+00  0.000E+00  0.000E+00  1.20202E+02  '
               '1.352E+00  3.430E+00  6.747E-04  1.243E-03  5.560E-06\n',
               '-   1    4   72     1    72    3.2604E+00  1.2487E-03   '
               '3.2592E+00  0.000E+00  0.000E+00  0.000E+00  1.19901E+02  '
               '1.351E+00  3.429E+00  6.746E-04  1.242E-03  6.465E-06\n',
               '-   1    4   73     1    73    3.2592E+00  1.2484E-03   '
               '3.2579E+00  0.000E+00  0.000E+00  0.000E+00  1.19601E+02  '
               '1.351E+00  3.429E+00  6.745E-04  1.241E-03  7.294E-06\n',
               '-   1    4   74     1    74    3.2579E+00  1.2480E-03   '
               '3.2567E+00  0.000E+00  0.000E+00  0.000E+00  1.19301E+02  '
               '1.351E+00  3.429E+00  6.744E-04  1.240E-03  8.039E-06\n',
               '-   1    4   75     1    75    3.2567E+00  1.2477E-03   '
               '3.2554E+00  0.000E+00  0.000E+00  0.000E+00  1.19001E+02  '
               '1.351E+00  3.428E+00  6.743E-04  1.239E-03  8.691E-06\n',
               '-   1    4   76     1    76    3.2554E+00  1.2473E-03   '
               '3.2542E+00  0.000E+00  0.000E+00  0.000E+00  1.18700E+02  '
               '1.350E+00  3.428E+00  6.743E-04  1.238E-03  9.241E-06\n',
               '-   1    4   77     1    77    3.2542E+00  1.2470E-03   '
               '3.2530E+00  0.000E+00  0.000E+00  0.000E+00  1.18400E+02  '
               '1.350E+00  3.428E+00  6.742E-04  1.237E-03  9.676E-06\n',
               '-   1    4   78     1    78    3.2530E+00  1.2466E-03   '
               '3.2517E+00  0.000E+00  0.000E+00  0.000E+00  1.18100E+02  '
               '1.350E+00  3.427E+00  6.741E-04  1.237E-03  9.994E-06\n',
               '-   1    4   79     1    79    3.2517E+00  1.2463E-03   '
               '3.2505E+00  0.000E+00  0.000E+00  0.000E+00  1.17799E+02  '
               '1.349E+00  3.427E+00  6.740E-04  1.238E-03  8.772E-06\n',
               '-   1    4   80     1    80    3.2505E+00  1.2460E-03   '
               '3.2492E+00  0.000E+00  0.000E+00  0.000E+00  1.17499E+02  '
               '1.349E+00  3.427E+00  6.739E-04  1.244E-03  2.028E-06\n',
               '-   1    4   81     1    81    3.2492E+00  1.2456E-03   '
               '3.2480E+00  0.000E+00  0.000E+00  0.000E+00  1.17199E+02  '
               '1.349E+00  3.426E+00  6.738E-04  1.244E-03  1.915E-06\n',
               '-   1    4   82     1    82    3.2480E+00  1.2453E-03   '
               '3.2467E+00  0.000E+00  0.000E+00  0.000E+00  1.16899E+02  '
               '1.349E+00  3.426E+00  6.737E-04  1.244E-03  1.641E-06\n',
               '-   1    4   83     1    83    3.2467E+00  1.2449E-03   '
               '3.2455E+00  0.000E+00  0.000E+00  0.000E+00  1.16598E+02  '
               '1.348E+00  3.426E+00  6.736E-04  1.244E-03  1.196E-06\n',
               '-   1    4   84     1    84    3.2455E+00  1.2446E-03   '
               '3.2442E+00  0.000E+00  0.000E+00  0.000E+00  1.16298E+02  '
               '1.348E+00  3.425E+00  6.736E-04  1.244E-03  5.641E-07\n',
               '-   1    4   85     1    85    3.2442E+00  1.2442E-03   '
               '3.2430E+00  0.000E+00  0.000E+00  0.000E+00  1.15998E+02  '
               '1.348E+00  3.425E+00  6.735E-04  1.245E-03 -2.632E-07\n',
               '-   1    4   86     1    86    3.2430E+00  1.2439E-03   '
               '3.2417E+00  0.000E+00  0.000E+00  0.000E+00  1.15698E+02  '
               '1.348E+00  3.425E+00  6.734E-04  1.245E-03 -1.291E-06\n',
               '-   1    4   87     1    87    3.2417E+00  1.2436E-03   '
               '3.2405E+00  0.000E+00  0.000E+00  0.000E+00  1.15397E+02  '
               '1.347E+00  3.424E+00  6.733E-04  1.246E-03 -2.838E-06\n',
               '-   1    4   88     1    88    3.2405E+00  1.2432E-03   '
               '3.2393E+00  0.000E+00  0.000E+00  0.000E+00  1.15097E+02  '
               '1.347E+00  3.424E+00  6.732E-04  1.255E-03 -1.132E-05\n',
               '-   1    4   89     1    89    3.2393E+00  1.2429E-03   '
               '3.2380E+00  0.000E+00  0.000E+00  0.000E+00  1.14797E+02  '
               '1.347E+00  3.424E+00  6.731E-04  1.267E-03 -2.363E-05\n',
               '-   1    4   90     1    90    3.2380E+00  1.2425E-03   '
               '3.2368E+00  0.000E+00  0.000E+00  0.000E+00  1.14497E+02  '
               '1.347E+00  3.424E+00  6.730E-04  1.268E-03 -2.562E-05\n',
               '-   1    4   91     1    91    3.2368E+00  1.2422E-03   '
               '3.2355E+00  0.000E+00  0.000E+00  0.000E+00  1.14196E+02  '
               '1.346E+00  3.423E+00  6.729E-04  1.270E-03 -2.782E-05\n',
               '-   1    4   92     1    92    3.2355E+00  1.2418E-03   '
               '3.2343E+00  0.000E+00  0.000E+00  0.000E+00  1.13896E+02  '
               '1.346E+00  3.423E+00  6.728E-04  1.272E-03 -3.024E-05\n',
               '-   1    4   93     1    93    3.2343E+00  1.2415E-03   '
               '3.2330E+00  0.000E+00  0.000E+00  0.000E+00  1.13596E+02  '
               '1.346E+00  3.423E+00  6.728E-04  1.274E-03 -3.287E-05\n',
               '-   1    4   94     1    94    3.2330E+00  1.2412E-03   '
               '3.2318E+00  0.000E+00  0.000E+00  0.000E+00  1.13295E+02  '
               '1.345E+00  3.422E+00  6.727E-04  1.277E-03 -3.565E-05\n',
               '-   1    4   95     1    95    3.2318E+00  1.2408E-03   '
               '3.2306E+00  0.000E+00  0.000E+00  0.000E+00  1.12995E+02  '
               '1.345E+00  3.422E+00  6.726E-04  1.292E-03 -5.135E-05\n',
               '-   1    4   96     1    96    3.2306E+00  1.2405E-03   '
               '3.2293E+00  0.000E+00  0.000E+00  0.000E+00  1.12695E+02  '
               '1.345E+00  3.422E+00  6.725E-04  1.295E-03 -5.451E-05\n',
               '-   1    4   97     1    97    3.2293E+00  1.2401E-03   '
               '3.2281E+00  0.000E+00  0.000E+00  0.000E+00  1.12395E+02  '
               '1.345E+00  3.421E+00  6.724E-04  1.298E-03 -5.774E-05\n',
               '-   1    4   98     1    98    3.2281E+00  1.2398E-03   '
               '3.2268E+00  0.000E+00  0.000E+00  0.000E+00  1.12094E+02  '
               '1.344E+00  3.421E+00  6.723E-04  1.311E-03 -7.109E-05\n',
               '-   1    4   99     1    99    3.2268E+00  1.2394E-03   '
               '3.2256E+00  0.000E+00  0.000E+00  0.000E+00  1.11794E+02  '
               '1.344E+00  3.421E+00  6.722E-04  1.314E-03 -7.451E-05\n',
               '-   1    4  100     1   100    3.2256E+00  1.2391E-03   '
               '3.2244E+00  0.000E+00  0.000E+00  0.000E+00  1.11494E+02  '
               '1.344E+00  3.420E+00  6.721E-04  1.317E-03 -7.803E-05\n',
               '-\n',
               '-\n',
               '-\n',
               '-1\n',
               '-  VOLUMETRIC BUDGET FOR UNSATURATED ZONE BENEATH STREAMS AT '
               'END OF TIME STEP    30 STRESS PERIOD  14\n',
               '-  '
               '------------------------------------------------------------------------------------------------\n',
               '-\n',
               '-    CUMULATIVE VOLUMES             L**3    RATES FOR THIS '
               'TIME STEP         L**3/T\n',
               '-    ------------------                     '
               '------------------------\n',
               '-\n',
               '-\n',
               '-          STREAM LOSS =     13532727.0000            STREAM '
               'LOSS =            0.1256\n',
               '-    CHANGE IN STORAGE =       435751.4688      CHANGE IN '
               'STORAGE =       -2.9888E-03\n',
               '-       RECHARGE TO GW =     13099786.0000         RECHARGE TO '
               'GW =            0.1286\n',
               '-\n',
               '-             TOTAL IN =     13532727.0000               TOTAL '
               'IN =            0.1286\n',
               '-\n',
               '-            TOTAL OUT =     13535537.0000              TOTAL '
               'OUT =            0.1286\n',
               '-\n',
               '-             IN - OUT =        -2810.0000               IN - '
               'OUT =        4.4703E-08\n',
               '-\n',
               '-  PERCENT DISCREPANCY =           -0.01      PERCENT '
               'DISCREPANCY =             0.00\n',
               '-\n',
               '-\n',
               '-\n',
               '-1\n',
               '-  VOLUMETRIC BUDGET FOR ENTIRE MODEL AT END OF TIME STEP   '
               '30, STRESS PERIOD  14\n',
               '-  '
               '------------------------------------------------------------------------------\n',
               '-\n',
               '-     CUMULATIVE VOLUMES      L**3       RATES FOR THIS TIME '
               'STEP      L**3/T\n',
               '-     ------------------                 '
               '------------------------\n',
               '-\n',
               '-           IN:                                      IN:\n',
               '-           ---                                      ---\n',
               '-             STORAGE =     9783663.0000               STORAGE '
               '=           0.1561\n',
               '-       CONSTANT HEAD =           0.0000         CONSTANT HEAD '
               '=           0.0000\n',
               '-     HEAD DEP BOUNDS =           0.0000       HEAD DEP BOUNDS '
               '=           0.0000\n',
               '-      STREAM LEAKAGE =    13099829.0000        STREAM LEAKAGE '
               '=           0.1286\n',
               '-\n',
               '-            TOTAL IN =    22883492.0000              TOTAL IN '
               '=           0.2847\n',
               '-\n',
               '-          OUT:                                     OUT:\n',
               '-          ----                                     ----\n',
               '-             STORAGE =     7518481.5000               STORAGE '
               '=       3.3913E-02\n',
               '-       CONSTANT HEAD =           0.0000         CONSTANT HEAD '
               '=           0.0000\n',
               '-     HEAD DEP BOUNDS =    15365016.0000       HEAD DEP BOUNDS '
               '=           0.2507\n',
               '-      STREAM LEAKAGE =           0.0000        STREAM LEAKAGE '
               '=           0.0000\n',
               '-\n',
               '-           TOTAL OUT =    22883498.0000             TOTAL OUT '
               '=           0.2846\n',
               '-\n',
               '-            IN - OUT =          -6.0000              IN - OUT '
               '=       1.1450E-04\n',
               '-\n',
               '- PERCENT DISCREPANCY =          -0.00     PERCENT DISCREPANCY '
               '=           0.04\n',
               '-\n',
               '-\n',
               '-\n',
               '-\n',
               '-\n',
               '-\n',
               '-         TIME SUMMARY AT END OF TIME STEP   30 IN STRESS '
               'PERIOD   14\n',
               '-                    SECONDS     MINUTES      HOURS       '
               'DAYS        YEARS\n',
               '-                    '
               '-----------------------------------------------------------\n',
               '-   TIME STEP LENGTH 2.49961E+05  4166.0      69.434      '
               '2.8931     7.92080E-03\n',
               '- STRESS PERIOD TIME 2.59200E+06  43200.      720.00      '
               '30.000     8.21355E-02\n',
               '-         TOTAL TIME 3.62880E+07 6.04800E+05  10080.      '
               '420.00      1.1499    \n',
               '-1\n',
               '-1\n',
               '-                            STRESS PERIOD NO.   15, LENGTH '
               '=   2592000.    \n',
               '-                            '
               '-----------------------------------------------\n',
               '-\n',
               '-                              NUMBER OF TIME STEPS =    30\n',
               '-\n',
               '-                               MULTIPLIER FOR DELT =     '
               '1.100\n',
               '-\n',
               '-                            INITIAL TIME STEP SIZE =   '
               '15757.40    \n',
               '-\n',
               '- REUSING NON-PARAMETER GHB CELLS FROM LAST STRESS PERIOD\n',
               '-\n',
               '-      7 GHB CELLS\n',
               '- \n',
               '- SOLVING FOR HEAD \n',
               '-\n',
               '- NO OUTPUT CONTROL FOR STRESS PERIOD   15   TIME STEP    1\n',
               '- \n',
               '- SOLVING FOR HEAD \n',
               '-\n',
               '- NO OUTPUT CONTROL FOR STRESS PERIOD   15   TIME STEP    2\n',
               '- \n',
               '- SOLVING FOR HEAD \n',
               '-\n',
               '- NO OUTPUT CONTROL FOR STRESS PERIOD   15   TIME STEP    3\n',
               '- \n',
               '- SOLVING FOR HEAD \n',
               '-\n',
               '- NO OUTPUT CONTROL FOR STRESS PERIOD   15   TIME STEP    4\n',
               '- \n',
               '- SOLVING FOR HEAD \n',
               '-\n',
               '- NO OUTPUT CONTROL FOR STRESS PERIOD   15   TIME STEP    5\n',
               '- \n',
               '- SOLVING FOR HEAD \n',
               '-\n',
               '- NO OUTPUT CONTROL FOR STRESS PERIOD   15   TIME STEP    6\n',
               '- \n',
               '- SOLVING FOR HEAD \n',
               '-\n',
               '- NO OUTPUT CONTROL FOR STRESS PERIOD   15   TIME STEP    7\n',
               '- \n',
               '- SOLVING FOR HEAD \n',
               '-\n',
               '- NO OUTPUT CONTROL FOR STRESS PERIOD   15   TIME STEP    8\n',
               '- \n',
               '- SOLVING FOR HEAD \n',
               '-\n',
               '- NO OUTPUT CONTROL FOR STRESS PERIOD   15   TIME STEP    9\n',
               '- \n',
               '- SOLVING FOR HEAD \n',
               '-\n',
               '- NO OUTPUT CONTROL FOR STRESS PERIOD   15   TIME STEP   10\n',
               '- \n',
               '- SOLVING FOR HEAD \n',
               '-\n',
               '- NO OUTPUT CONTROL FOR STRESS PERIOD   15   TIME STEP   11\n',
               '- \n',
               '- SOLVING FOR HEAD \n',
               '-\n',
               '- NO OUTPUT CONTROL FOR STRESS PERIOD   15   TIME STEP   12\n',
               '- \n',
               '- SOLVING FOR HEAD \n',
               '-\n',
               '- NO OUTPUT CONTROL FOR STRESS PERIOD   15   TIME STEP   13\n',
               '- \n',
               '- SOLVING FOR HEAD \n',
               '-\n',
               '- NO OUTPUT CONTROL FOR STRESS PERIOD   15   TIME STEP   14\n',
               '- \n',
               '- SOLVING FOR HEAD \n',
               '-\n',
               '- NO OUTPUT CONTROL FOR STRESS PERIOD   15   TIME STEP   15\n',
               '- \n',
               '- SOLVING FOR HEAD \n',
               '-\n',
               '- NO OUTPUT CONTROL FOR STRESS PERIOD   15   TIME STEP   16\n',
               '- \n',
               '- SOLVING FOR HEAD \n',
               '-\n',
               '- NO OUTPUT CONTROL FOR STRESS PERIOD   15   TIME STEP   17\n',
               '- \n',
               '- SOLVING FOR HEAD \n',
               '-\n',
               '- NO OUTPUT CONTROL FOR STRESS PERIOD   15   TIME STEP   18\n',
               '- \n',
               '- SOLVING FOR HEAD \n',
               '-\n',
               '- NO OUTPUT CONTROL FOR STRESS PERIOD   15   TIME STEP   19\n',
               '- \n',
               '- SOLVING FOR HEAD \n',
               '-\n',
               '- NO OUTPUT CONTROL FOR STRESS PERIOD   15   TIME STEP   20\n',
               '- \n',
               '- SOLVING FOR HEAD \n',
               '-\n',
               '- NO OUTPUT CONTROL FOR STRESS PERIOD   15   TIME STEP   21\n',
               '- \n',
               '- SOLVING FOR HEAD \n',
               '-\n',
               '- NO OUTPUT CONTROL FOR STRESS PERIOD   15   TIME STEP   22\n',
               '- \n',
               '- SOLVING FOR HEAD \n',
               '-\n',
               '- NO OUTPUT CONTROL FOR STRESS PERIOD   15   TIME STEP   23\n',
               '- \n',
               '- SOLVING FOR HEAD \n',
               '-\n',
               '- NO OUTPUT CONTROL FOR STRESS PERIOD   15   TIME STEP   24\n',
               '- \n',
               '- SOLVING FOR HEAD \n',
               '-\n',
               '- NO OUTPUT CONTROL FOR STRESS PERIOD   15   TIME STEP   25\n',
               '- \n',
               '- SOLVING FOR HEAD \n',
               '-\n',
               '- NO OUTPUT CONTROL FOR STRESS PERIOD   15   TIME STEP   26\n',
               '- \n',
               '- SOLVING FOR HEAD \n',
               '-\n',
               '- NO OUTPUT CONTROL FOR STRESS PERIOD   15   TIME STEP   27\n',
               '- \n',
               '- SOLVING FOR HEAD \n',
               '-\n',
               '- NO OUTPUT CONTROL FOR STRESS PERIOD   15   TIME STEP   28\n',
               '- \n',
               '- SOLVING FOR HEAD \n',
               '-\n',
               '- NO OUTPUT CONTROL FOR STRESS PERIOD   15   TIME STEP   29\n',
               '- \n',
               '- SOLVING FOR HEAD \n',
               '-\n',
               '- OUTPUT CONTROL FOR STRESS PERIOD   15   TIME STEP   30\n',
               '-    PRINT HEAD FOR ALL LAYERS\n',
               '-    PRINT BUDGET\n',
               '-    SAVE BUDGET\n',
               '-\n',
               '-  HEAD DEP BOUNDS   PERIOD   15   STEP  30\n',
               '- BOUNDARY      1   LAYER   1   ROW     1   COL   100   RATE   '
               '-3.663501E-02\n',
               '- BOUNDARY      2   LAYER   1   ROW     2   COL   100   RATE   '
               '-3.667087E-02\n',
               '- BOUNDARY      3   LAYER   1   ROW     3   COL   100   RATE   '
               '-3.643576E-02\n',
               '- BOUNDARY      4   LAYER   1   ROW     4   COL   100   RATE   '
               '-2.738595E-02\n',
               '- BOUNDARY      5   LAYER   1   ROW     5   COL   100   RATE   '
               '-3.643576E-02\n',
               '- BOUNDARY      6   LAYER   1   ROW     6   COL   100   RATE   '
               '-3.667087E-02\n',
               '- BOUNDARY      7   LAYER   1   ROW     7   COL   100   RATE   '
               '-3.663500E-02\n',
               '-\n',
               '-\n',
               '-\n',
               '- STREAM LISTING     PERIOD     15   STEP       30\n',
               '-\n',
               '- LAYER ROW COL. STREAM  RCH.   FLOW INTO    STREAM     FLOW '
               'OUT OF   OVRLND.    DIRECT     STREAM      STREAM      '
               'STREAM     STREAM  STREAMBED   FLOW TO   CHNG. UNSAT. \n',
               '-                SEG.NO.  NO.   STRM. RCH.    LOSS       STRM. '
               'RCH.   RUNOFF     PRECIP       ET         HEAD        '
               'DEPTH      WIDTH  CONDCTNC.   WAT. TAB.\n',
               '-\n',
               '-   1    4    1     1     1    6.1800E+00  2.0191E-03   '
               '6.1779E+00  0.000E+00  0.000E+00  0.000E+00  1.41732E+02  '
               '1.882E+00  4.064E+00  8.478E-04  2.067E-03 -4.349E-05\n',
               '-   1    4    2     1     2    6.1779E+00  2.0186E-03   '
               '6.1759E+00  0.000E+00  0.000E+00  0.000E+00  1.41432E+02  '
               '1.882E+00  4.064E+00  8.477E-04  2.067E-03 -4.364E-05\n',
               '-   1    4    3     1     3    6.1759E+00  2.0180E-03   '
               '6.1739E+00  0.000E+00  0.000E+00  0.000E+00  1.41131E+02  '
               '1.881E+00  4.064E+00  8.476E-04  2.067E-03 -4.378E-05\n',
               '-   1    4    4     1     4    6.1739E+00  2.0175E-03   '
               '6.1719E+00  0.000E+00  0.000E+00  0.000E+00  1.40831E+02  '
               '1.881E+00  4.063E+00  8.475E-04  2.066E-03 -4.391E-05\n',
               '-   1    4    5     1     5    6.1719E+00  2.0170E-03   '
               '6.1699E+00  0.000E+00  0.000E+00  0.000E+00  1.40531E+02  '
               '1.881E+00  4.063E+00  8.474E-04  2.066E-03 -4.402E-05\n',
               '-   1    4    6     1     6    6.1699E+00  2.0165E-03   '
               '6.1679E+00  0.000E+00  0.000E+00  0.000E+00  1.40231E+02  '
               '1.881E+00  4.062E+00  8.473E-04  2.065E-03 -4.411E-05\n',
               '-   1    4    7     1     7    6.1679E+00  2.0160E-03   '
               '6.1658E+00  0.000E+00  0.000E+00  0.000E+00  1.39930E+02  '
               '1.880E+00  4.062E+00  8.472E-04  2.065E-03 -4.420E-05\n',
               '-   1    4    8     1     8    6.1658E+00  2.0155E-03   '
               '6.1638E+00  0.000E+00  0.000E+00  0.000E+00  1.39630E+02  '
               '1.880E+00  4.062E+00  8.471E-04  2.064E-03 -4.427E-05\n',
               '-   1    4    9     1     9    6.1638E+00  2.0150E-03   '
               '6.1618E+00  0.000E+00  0.000E+00  0.000E+00  1.39330E+02  '
               '1.880E+00  4.061E+00  8.470E-04  2.064E-03 -4.432E-05\n',
               '-   1    4   10     1    10    6.1618E+00  2.0144E-03   '
               '6.1598E+00  0.000E+00  0.000E+00  0.000E+00  1.39029E+02  '
               '1.879E+00  4.061E+00  8.469E-04  2.064E-03 -4.436E-05\n',
               '-   1    4   11     1    11    6.1598E+00  2.0139E-03   '
               '6.1578E+00  0.000E+00  0.000E+00  0.000E+00  1.38729E+02  '
               '1.879E+00  4.061E+00  8.468E-04  2.063E-03 -4.439E-05\n',
               '-   1    4   12     1    12    6.1578E+00  2.0134E-03   '
               '6.1558E+00  0.000E+00  0.000E+00  0.000E+00  1.38429E+02  '
               '1.879E+00  4.060E+00  8.467E-04  2.063E-03 -4.440E-05\n',
               '-   1    4   13     1    13    6.1558E+00  2.0129E-03   '
               '6.1538E+00  0.000E+00  0.000E+00  0.000E+00  1.38128E+02  '
               '1.878E+00  4.060E+00  8.466E-04  2.062E-03 -4.439E-05\n',
               '-   1    4   14     1    14    6.1538E+00  2.0124E-03   '
               '6.1517E+00  0.000E+00  0.000E+00  0.000E+00  1.37828E+02  '
               '1.878E+00  4.059E+00  8.465E-04  2.061E-03 -4.437E-05\n',
               '-   1    4   15     1    15    6.1517E+00  2.0119E-03   '
               '6.1497E+00  0.000E+00  0.000E+00  0.000E+00  1.37528E+02  '
               '1.878E+00  4.059E+00  8.464E-04  2.061E-03 -4.432E-05\n',
               '-   1    4   16     1    16    6.1497E+00  2.0114E-03   '
               '6.1477E+00  0.000E+00  0.000E+00  0.000E+00  1.37227E+02  '
               '1.877E+00  4.059E+00  8.463E-04  2.060E-03 -4.426E-05\n',
               '-   1    4   17     1    17    6.1477E+00  2.0109E-03   '
               '6.1457E+00  0.000E+00  0.000E+00  0.000E+00  1.36927E+02  '
               '1.877E+00  4.058E+00  8.462E-04  2.060E-03 -4.416E-05\n',
               '-   1    4   18     1    18    6.1457E+00  2.0103E-03   '
               '6.1437E+00  0.000E+00  0.000E+00  0.000E+00  1.36627E+02  '
               '1.877E+00  4.058E+00  8.461E-04  2.056E-03 -4.074E-05\n',
               '-   1    4   19     1    19    6.1437E+00  2.0098E-03   '
               '6.1417E+00  0.000E+00  0.000E+00  0.000E+00  1.36326E+02  '
               '1.876E+00  4.057E+00  8.460E-04  2.048E-03 -3.389E-05\n',
               '-   1    4   20     1    20    6.1417E+00  2.0093E-03   '
               '6.1397E+00  0.000E+00  0.000E+00  0.000E+00  1.36026E+02  '
               '1.876E+00  4.057E+00  8.458E-04  2.047E-03 -3.316E-05\n',
               '-   1    4   21     1    21    6.1397E+00  2.0088E-03   '
               '6.1377E+00  0.000E+00  0.000E+00  0.000E+00  1.35726E+02  '
               '1.876E+00  4.057E+00  8.457E-04  2.047E-03 -3.303E-05\n',
               '-   1    4   22     1    22    6.1377E+00  2.0083E-03   '
               '6.1357E+00  0.000E+00  0.000E+00  0.000E+00  1.35425E+02  '
               '1.875E+00  4.056E+00  8.456E-04  2.046E-03 -3.287E-05\n',
               '-   1    4   23     1    23    6.1357E+00  2.0078E-03   '
               '6.1337E+00  0.000E+00  0.000E+00  0.000E+00  1.35125E+02  '
               '1.875E+00  4.056E+00  8.455E-04  2.045E-03 -3.269E-05\n',
               '-   1    4   24     1    24    6.1337E+00  2.0073E-03   '
               '6.1316E+00  0.000E+00  0.000E+00  0.000E+00  1.34825E+02  '
               '1.875E+00  4.056E+00  8.454E-04  2.044E-03 -3.247E-05\n',
               '-   1    4   25     1    25    6.1316E+00  2.0068E-03   '
               '6.1296E+00  0.000E+00  0.000E+00  0.000E+00  1.34525E+02  '
               '1.875E+00  4.055E+00  8.453E-04  2.044E-03 -3.224E-05\n',
               '-   1    4   26     1    26    6.1296E+00  2.0062E-03   '
               '6.1276E+00  0.000E+00  0.000E+00  0.000E+00  1.34224E+02  '
               '1.874E+00  4.055E+00  8.452E-04  2.043E-03 -3.197E-05\n',
               '-   1    4   27     1    27    6.1276E+00  2.0057E-03   '
               '6.1256E+00  0.000E+00  0.000E+00  0.000E+00  1.33924E+02  '
               '1.874E+00  4.054E+00  8.451E-04  2.042E-03 -3.167E-05\n',
               '-   1    4   28     1    28    6.1256E+00  2.0052E-03   '
               '6.1236E+00  0.000E+00  0.000E+00  0.000E+00  1.33624E+02  '
               '1.874E+00  4.054E+00  8.450E-04  2.038E-03 -2.784E-05\n',
               '-   1    4   29     1    29    6.1236E+00  2.0047E-03   '
               '6.1216E+00  0.000E+00  0.000E+00  0.000E+00  1.33323E+02  '
               '1.873E+00  4.054E+00  8.449E-04  2.032E-03 -2.305E-05\n',
               '-   1    4   30     1    30    6.1216E+00  2.0042E-03   '
               '6.1196E+00  0.000E+00  0.000E+00  0.000E+00  1.33023E+02  '
               '1.873E+00  4.053E+00  8.448E-04  2.032E-03 -2.273E-05\n',
               '-   1    4   31     1    31    6.1196E+00  2.0037E-03   '
               '6.1176E+00  0.000E+00  0.000E+00  0.000E+00  1.32723E+02  '
               '1.873E+00  4.053E+00  8.447E-04  2.031E-03 -2.238E-05\n',
               '-   1    4   32     1    32    6.1176E+00  2.0032E-03   '
               '6.1156E+00  0.000E+00  0.000E+00  0.000E+00  1.32422E+02  '
               '1.872E+00  4.053E+00  8.446E-04  2.030E-03 -2.200E-05\n',
               '-   1    4   33     1    33    6.1156E+00  2.0027E-03   '
               '6.1136E+00  0.000E+00  0.000E+00  0.000E+00  1.32122E+02  '
               '1.872E+00  4.052E+00  8.445E-04  2.029E-03 -2.158E-05\n',
               '-   1    4   34     1    34    6.1136E+00  2.0021E-03   '
               '6.1116E+00  0.000E+00  0.000E+00  0.000E+00  1.31822E+02  '
               '1.872E+00  4.052E+00  8.444E-04  2.028E-03 -2.114E-05\n',
               '-   1    4   35     1    35    6.1116E+00  2.0016E-03   '
               '6.1096E+00  0.000E+00  0.000E+00  0.000E+00  1.31521E+02  '
               '1.871E+00  4.051E+00  8.443E-04  2.027E-03 -2.066E-05\n',
               '-   1    4   36     1    36    6.1096E+00  2.0011E-03   '
               '6.1076E+00  0.000E+00  0.000E+00  0.000E+00  1.31221E+02  '
               '1.871E+00  4.051E+00  8.442E-04  2.026E-03 -2.015E-05\n',
               '-   1    4   37     1    37    6.1076E+00  2.0006E-03   '
               '6.1056E+00  0.000E+00  0.000E+00  0.000E+00  1.30921E+02  '
               '1.871E+00  4.051E+00  8.441E-04  2.025E-03 -1.961E-05\n',
               '-   1    4   38     1    38    6.1056E+00  2.0001E-03   '
               '6.1036E+00  0.000E+00  0.000E+00  0.000E+00  1.30620E+02  '
               '1.870E+00  4.050E+00  8.440E-04  2.024E-03 -1.903E-05\n',
               '-   1    4   39     1    39    6.1036E+00  1.9996E-03   '
               '6.1016E+00  0.000E+00  0.000E+00  0.000E+00  1.30320E+02  '
               '1.870E+00  4.050E+00  8.439E-04  2.023E-03 -1.843E-05\n',
               '-   1    4   40     1    40    6.1016E+00  1.9991E-03   '
               '6.0996E+00  0.000E+00  0.000E+00  0.000E+00  1.30020E+02  '
               '1.870E+00  4.050E+00  8.438E-04  2.022E-03 -1.779E-05\n',
               '-   1    4   41     1    41    6.0996E+00  1.9986E-03   '
               '6.0976E+00  0.000E+00  0.000E+00  0.000E+00  1.29719E+02  '
               '1.869E+00  4.049E+00  8.437E-04  2.020E-03 -1.713E-05\n',
               '-   1    4   42     1    42    6.0976E+00  1.9981E-03   '
               '6.0956E+00  0.000E+00  0.000E+00  0.000E+00  1.29419E+02  '
               '1.869E+00  4.049E+00  8.436E-04  2.019E-03 -1.643E-05\n',
               '-   1    4   43     1    43    6.0956E+00  1.9975E-03   '
               '6.0936E+00  0.000E+00  0.000E+00  0.000E+00  1.29119E+02  '
               '1.869E+00  4.048E+00  8.435E-04  2.018E-03 -1.570E-05\n',
               '-   1    4   44     1    44    6.0936E+00  1.9970E-03   '
               '6.0916E+00  0.000E+00  0.000E+00  0.000E+00  1.28819E+02  '
               '1.869E+00  4.048E+00  8.434E-04  2.017E-03 -1.495E-05\n',
               '-   1    4   45     1    45    6.0916E+00  1.9965E-03   '
               '6.0896E+00  0.000E+00  0.000E+00  0.000E+00  1.28518E+02  '
               '1.868E+00  4.048E+00  8.433E-04  2.015E-03 -1.416E-05\n',
               '-   1    4   46     1    46    6.0896E+00  1.9960E-03   '
               '6.0876E+00  0.000E+00  0.000E+00  0.000E+00  1.28218E+02  '
               '1.868E+00  4.047E+00  8.432E-04  2.014E-03 -1.335E-05\n',
               '-   1    4   47     1    47    6.0876E+00  1.9955E-03   '
               '6.0856E+00  0.000E+00  0.000E+00  0.000E+00  1.27918E+02  '
               '1.868E+00  4.047E+00  8.431E-04  2.013E-03 -1.252E-05\n',
               '-   1    4   48     1    48    6.0856E+00  1.9950E-03   '
               '6.0836E+00  0.000E+00  0.000E+00  0.000E+00  1.27617E+02  '
               '1.867E+00  4.047E+00  8.430E-04  2.011E-03 -1.166E-05\n',
               '-   1    4   49     1    49    6.0836E+00  1.9945E-03   '
               '6.0816E+00  0.000E+00  0.000E+00  0.000E+00  1.27317E+02  '
               '1.867E+00  4.046E+00  8.429E-04  2.010E-03 -1.077E-05\n',
               '-   1    4   50     1    50    6.0816E+00  1.9940E-03   '
               '6.0796E+00  0.000E+00  0.000E+00  0.000E+00  1.27017E+02  '
               '1.867E+00  4.046E+00  8.428E-04  2.009E-03 -9.864E-06\n',
               '-   1    4   51     1    51    6.0796E+00  1.9935E-03   '
               '6.0776E+00  0.000E+00  0.000E+00  0.000E+00  1.26716E+02  '
               '1.866E+00  4.045E+00  8.427E-04  2.007E-03 -8.938E-06\n',
               '-   1    4   52     1    52    6.0776E+00  1.9930E-03   '
               '6.0757E+00  0.000E+00  0.000E+00  0.000E+00  1.26416E+02  '
               '1.866E+00  4.045E+00  8.425E-04  2.006E-03 -7.996E-06\n',
               '-   1    4   53     1    53    6.0757E+00  1.9925E-03   '
               '6.0737E+00  0.000E+00  0.000E+00  0.000E+00  1.26116E+02  '
               '1.866E+00  4.045E+00  8.424E-04  2.004E-03 -7.038E-06\n',
               '-   1    4   54     1    54    6.0737E+00  1.9919E-03   '
               '6.0717E+00  0.000E+00  0.000E+00  0.000E+00  1.25815E+02  '
               '1.865E+00  4.044E+00  8.423E-04  2.003E-03 -6.070E-06\n',
               '-   1    4   55     1    55    6.0717E+00  1.9914E-03   '
               '6.0697E+00  0.000E+00  0.000E+00  0.000E+00  1.25515E+02  '
               '1.865E+00  4.044E+00  8.422E-04  2.001E-03 -5.092E-06\n',
               '-   1    4   56     1    56    6.0697E+00  1.9909E-03   '
               '6.0677E+00  0.000E+00  0.000E+00  0.000E+00  1.25215E+02  '
               '1.865E+00  4.044E+00  8.421E-04  2.000E-03 -4.108E-06\n',
               '-   1    4   57     1    57    6.0677E+00  1.9904E-03   '
               '6.0657E+00  0.000E+00  0.000E+00  0.000E+00  1.24914E+02  '
               '1.864E+00  4.043E+00  8.420E-04  1.998E-03 -3.120E-06\n',
               '-   1    4   58     1    58    6.0657E+00  1.9899E-03   '
               '6.0637E+00  0.000E+00  0.000E+00  0.000E+00  1.24614E+02  '
               '1.864E+00  4.043E+00  8.419E-04  1.997E-03 -2.132E-06\n',
               '-   1    4   59     1    59    6.0637E+00  1.9894E-03   '
               '6.0617E+00  0.000E+00  0.000E+00  0.000E+00  1.24314E+02  '
               '1.864E+00  4.042E+00  8.418E-04  1.995E-03 -1.148E-06\n',
               '-   1    4   60     1    60    6.0617E+00  1.9889E-03   '
               '6.0597E+00  0.000E+00  0.000E+00  0.000E+00  1.24013E+02  '
               '1.863E+00  4.042E+00  8.417E-04  1.994E-03 -1.720E-07\n',
               '-   1    4   61     1    61    6.0597E+00  1.9884E-03   '
               '6.0577E+00  0.000E+00  0.000E+00  0.000E+00  1.23713E+02  '
               '1.863E+00  4.042E+00  8.416E-04  1.992E-03  7.911E-07\n',
               '-   1    4   62     1    62    6.0577E+00  1.9879E-03   '
               '6.0558E+00  0.000E+00  0.000E+00  0.000E+00  1.23413E+02  '
               '1.863E+00  4.041E+00  8.415E-04  1.991E-03  1.738E-06\n',
               '-   1    4   63     1    63    6.0558E+00  1.9874E-03   '
               '6.0538E+00  0.000E+00  0.000E+00  0.000E+00  1.23113E+02  '
               '1.863E+00  4.041E+00  8.414E-04  1.989E-03  2.664E-06\n',
               '-   1    4   64     1    64    6.0538E+00  1.9869E-03   '
               '6.0518E+00  0.000E+00  0.000E+00  0.000E+00  1.22812E+02  '
               '1.862E+00  4.040E+00  8.413E-04  1.988E-03  3.564E-06\n',
               '-   1    4   65     1    65    6.0518E+00  1.9864E-03   '
               '6.0498E+00  0.000E+00  0.000E+00  0.000E+00  1.22512E+02  '
               '1.862E+00  4.040E+00  8.412E-04  1.987E-03  4.431E-06\n',
               '-   1    4   66     1    66    6.0498E+00  1.9858E-03   '
               '6.0478E+00  0.000E+00  0.000E+00  0.000E+00  1.22212E+02  '
               '1.862E+00  4.040E+00  8.411E-04  1.985E-03  5.260E-06\n',
               '-   1    4   67     1    67    6.0478E+00  1.9853E-03   '
               '6.0458E+00  0.000E+00  0.000E+00  0.000E+00  1.21911E+02  '
               '1.861E+00  4.039E+00  8.410E-04  1.984E-03  6.048E-06\n',
               '-   1    4   68     1    68    6.0458E+00  1.9848E-03   '
               '6.0438E+00  0.000E+00  0.000E+00  0.000E+00  1.21611E+02  '
               '1.861E+00  4.039E+00  8.409E-04  1.983E-03  6.787E-06\n',
               '-   1    4   69     1    69    6.0438E+00  1.9843E-03   '
               '6.0419E+00  0.000E+00  0.000E+00  0.000E+00  1.21311E+02  '
               '1.861E+00  4.039E+00  8.408E-04  1.981E-03  7.469E-06\n',
               '-   1    4   70     1    70    6.0419E+00  1.9838E-03   '
               '6.0399E+00  0.000E+00  0.000E+00  0.000E+00  1.21010E+02  '
               '1.860E+00  4.038E+00  8.407E-04  1.980E-03  8.091E-06\n',
               '-   1    4   71     1    71    6.0399E+00  1.9833E-03   '
               '6.0379E+00  0.000E+00  0.000E+00  0.000E+00  1.20710E+02  '
               '1.860E+00  4.038E+00  8.406E-04  1.979E-03  4.612E-06\n',
               '-   1    4   72     1    72    6.0379E+00  1.9828E-03   '
               '6.0359E+00  0.000E+00  0.000E+00  0.000E+00  1.20410E+02  '
               '1.860E+00  4.037E+00  8.405E-04  1.977E-03  5.352E-06\n',
               '-   1    4   73     1    73    6.0359E+00  1.9823E-03   '
               '6.0339E+00  0.000E+00  0.000E+00  0.000E+00  1.20109E+02  '
               '1.859E+00  4.037E+00  8.404E-04  1.976E-03  6.011E-06\n',
               '-   1    4   74     1    74    6.0339E+00  1.9818E-03   '
               '6.0319E+00  0.000E+00  0.000E+00  0.000E+00  1.19809E+02  '
               '1.859E+00  4.037E+00  8.403E-04  1.975E-03  6.579E-06\n',
               '-   1    4   75     1    75    6.0319E+00  1.9813E-03   '
               '6.0300E+00  0.000E+00  0.000E+00  0.000E+00  1.19509E+02  '
               '1.859E+00  4.036E+00  8.402E-04  1.974E-03  7.053E-06\n',
               '-   1    4   76     1    76    6.0300E+00  1.9808E-03   '
               '6.0280E+00  0.000E+00  0.000E+00  0.000E+00  1.19208E+02  '
               '1.858E+00  4.036E+00  8.401E-04  1.973E-03  7.431E-06\n',
               '-   1    4   77     1    77    6.0280E+00  1.9803E-03   '
               '6.0260E+00  0.000E+00  0.000E+00  0.000E+00  1.18908E+02  '
               '1.858E+00  4.036E+00  8.400E-04  1.978E-03  2.446E-06\n',
               '-   1    4   78     1    78    6.0260E+00  1.9798E-03   '
               '6.0240E+00  0.000E+00  0.000E+00  0.000E+00  1.18608E+02  '
               '1.858E+00  4.035E+00  8.399E-04  1.977E-03  2.604E-06\n',
               '-   1    4   79     1    79    6.0240E+00  1.9793E-03   '
               '6.0220E+00  0.000E+00  0.000E+00  0.000E+00  1.18307E+02  '
               '1.857E+00  4.035E+00  8.398E-04  1.977E-03  2.635E-06\n',
               '-   1    4   80     1    80    6.0220E+00  1.9787E-03   '
               '6.0201E+00  0.000E+00  0.000E+00  0.000E+00  1.18007E+02  '
               '1.857E+00  4.034E+00  8.397E-04  1.976E-03  2.531E-06\n',
               '-   1    4   81     1    81    6.0201E+00  1.9782E-03   '
               '6.0181E+00  0.000E+00  0.000E+00  0.000E+00  1.17707E+02  '
               '1.857E+00  4.034E+00  8.396E-04  1.976E-03  2.285E-06\n',
               '-   1    4   82     1    82    6.0181E+00  1.9777E-03   '
               '6.0161E+00  0.000E+00  0.000E+00  0.000E+00  1.17407E+02  '
               '1.857E+00  4.034E+00  8.395E-04  1.976E-03  1.892E-06\n',
               '-   1    4   83     1    83    6.0161E+00  1.9772E-03   '
               '6.0141E+00  0.000E+00  0.000E+00  0.000E+00  1.17106E+02  '
               '1.856E+00  4.033E+00  8.394E-04  1.976E-03  1.343E-06\n',
               '-   1    4   84     1    84    6.0141E+00  1.9767E-03   '
               '6.0121E+00  0.000E+00  0.000E+00  0.000E+00  1.16806E+02  '
               '1.856E+00  4.033E+00  8.393E-04  1.976E-03  6.336E-07\n',
               '-   1    4   85     1    85    6.0121E+00  1.9762E-03   '
               '6.0102E+00  0.000E+00  0.000E+00  0.000E+00  1.16506E+02  '
               '1.856E+00  4.033E+00  8.392E-04  1.976E-03 -2.366E-07\n',
               '-   1    4   86     1    86    6.0102E+00  1.9757E-03   '
               '6.0082E+00  0.000E+00  0.000E+00  0.000E+00  1.16205E+02  '
               '1.855E+00  4.032E+00  8.391E-04  1.983E-03 -7.070E-06\n',
               '-   1    4   87     1    87    6.0082E+00  1.9752E-03   '
               '6.0062E+00  0.000E+00  0.000E+00  0.000E+00  1.15905E+02  '
               '1.855E+00  4.032E+00  8.390E-04  1.986E-03 -1.101E-05\n',
               '-   1    4   88     1    88    6.0062E+00  1.9747E-03   '
               '6.0042E+00  0.000E+00  0.000E+00  0.000E+00  1.15605E+02  '
               '1.855E+00  4.031E+00  8.389E-04  1.987E-03 -1.240E-05\n',
               '-   1    4   89     1    89    6.0042E+00  1.9742E-03   '
               '6.0023E+00  0.000E+00  0.000E+00  0.000E+00  1.15304E+02  '
               '1.854E+00  4.031E+00  8.387E-04  1.988E-03 -1.394E-05\n',
               '-   1    4   90     1    90    6.0023E+00  1.9737E-03   '
               '6.0003E+00  0.000E+00  0.000E+00  0.000E+00  1.15004E+02  '
               '1.854E+00  4.031E+00  8.386E-04  1.989E-03 -1.562E-05\n',
               '-   1    4   91     1    91    6.0003E+00  1.9732E-03   '
               '5.9983E+00  0.000E+00  0.000E+00  0.000E+00  1.14704E+02  '
               '1.854E+00  4.030E+00  8.385E-04  1.991E-03 -1.742E-05\n',
               '-   1    4   92     1    92    5.9983E+00  1.9727E-03   '
               '5.9964E+00  0.000E+00  0.000E+00  0.000E+00  1.14403E+02  '
               '1.853E+00  4.030E+00  8.384E-04  2.000E-03 -2.691E-05\n',
               '-   1    4   93     1    93    5.9964E+00  1.9722E-03   '
               '5.9944E+00  0.000E+00  0.000E+00  0.000E+00  1.14103E+02  '
               '1.853E+00  4.030E+00  8.383E-04  2.001E-03 -2.892E-05\n',
               '-   1    4   94     1    94    5.9944E+00  1.9717E-03   '
               '5.9924E+00  0.000E+00  0.000E+00  0.000E+00  1.13803E+02  '
               '1.853E+00  4.029E+00  8.382E-04  2.003E-03 -3.099E-05\n',
               '-   1    4   95     1    95    5.9924E+00  1.9712E-03   '
               '5.9904E+00  0.000E+00  0.000E+00  0.000E+00  1.13502E+02  '
               '1.852E+00  4.029E+00  8.381E-04  2.004E-03 -3.309E-05\n',
               '-   1    4   96     1    96    5.9904E+00  1.9707E-03   '
               '5.9885E+00  0.000E+00  0.000E+00  0.000E+00  1.13202E+02  '
               '1.852E+00  4.028E+00  8.380E-04  2.017E-03 -4.626E-05\n',
               '-   1    4   97     1    97    5.9885E+00  1.9702E-03   '
               '5.9865E+00  0.000E+00  0.000E+00  0.000E+00  1.12902E+02  '
               '1.852E+00  4.028E+00  8.379E-04  2.019E-03 -4.843E-05\n',
               '-   1    4   98     1    98    5.9865E+00  1.9697E-03   '
               '5.9845E+00  0.000E+00  0.000E+00  0.000E+00  1.12602E+02  '
               '1.852E+00  4.028E+00  8.378E-04  2.020E-03 -5.061E-05\n',
               '-   1    4   99     1    99    5.9845E+00  1.9691E-03   '
               '5.9826E+00  0.000E+00  0.000E+00  0.000E+00  1.12301E+02  '
               '1.851E+00  4.027E+00  8.377E-04  2.022E-03 -5.279E-05\n',
               '-   1    4  100     1   100    5.9826E+00  1.9686E-03   '
               '5.9806E+00  0.000E+00  0.000E+00  0.000E+00  1.12001E+02  '
               '1.851E+00  4.027E+00  8.376E-04  2.027E-03 -5.868E-05\n',
               '-\n',
               '-\n',
               '-\n',
               '-1\n',
               '-  VOLUMETRIC BUDGET FOR UNSATURATED ZONE BENEATH STREAMS AT '
               'END OF TIME STEP    30 STRESS PERIOD  15\n',
               '-  '
               '------------------------------------------------------------------------------------------------\n',
               '-\n',
               '-    CUMULATIVE VOLUMES             L**3    RATES FOR THIS '
               'TIME STEP         L**3/T\n',
               '-    ------------------                     '
               '------------------------\n',
               '-\n',
               '-\n',
               '-          STREAM LOSS =     14049528.0000            STREAM '
               'LOSS =            0.1994\n',
               '-    CHANGE IN STORAGE =       472705.0625      CHANGE IN '
               'STORAGE =       -1.8980E-03\n',
               '-       RECHARGE TO GW =     13580474.0000         RECHARGE TO '
               'GW =            0.2016\n',
               '-\n',
               '-             TOTAL IN =     14049528.0000               TOTAL '
               'IN =            0.2013\n',
               '-\n',
               '-            TOTAL OUT =     14053179.0000              TOTAL '
               'OUT =            0.2016\n',
               '-\n',
               '-             IN - OUT =        -3651.0000               IN - '
               'OUT =       -3.3128E-04\n',
               '-\n',
               '-  PERCENT DISCREPANCY =           -0.01      PERCENT '
               'DISCREPANCY =            -0.04\n',
               '-\n',
               '-\n',
               '-\n',
               '-1\n',
               '-              HEAD IN LAYER   1 AT END OF TIME STEP  30 IN '
               'STRESS PERIOD   15\n',
               '-  '
               '---------------------------------------------------------------------------\n',
               '-\n',
               '-          1      2      3      4      5      6      7      '
               '8      9     10\n',
               '-         11     12     13     14     15     16     17     '
               '18     19     20\n',
               '-         21     22     23     24     25     26     27     '
               '28     29     30\n',
               '-         31     32     33     34     35     36     37     '
               '38     39     40\n',
               '-         41     42     43     44     45     46     47     '
               '48     49     50\n',
               '-         51     52     53     54     55     56     57     '
               '58     59     60\n',
               '-         61     62     63     64     65     66     67     '
               '68     69     70\n',
               '-         71     72     73     74     75     76     77     '
               '78     79     80\n',
               '-         81     82     83     84     85     86     87     '
               '88     89     90\n',
               '-         91     92     93     94     95     96     97     '
               '98     99    100\n',
               '- '
               '.........................................................................\n',
               '-   1   109.7  109.7  109.7  109.7  109.7  109.7  109.7  '
               '109.7  109.6  109.6\n',
               '-       109.6  109.6  109.6  109.6  109.6  109.6  109.6  '
               '109.6  109.6  109.5\n',
               '-       109.5  109.5  109.5  109.5  109.5  109.4  109.4  '
               '109.4  109.3  109.3\n',
               '-       109.3  109.2  109.2  109.1  109.1  109.0  109.0  '
               '108.9  108.8  108.7\n',
               '-       108.7  108.6  108.5  108.4  108.3  108.1  108.0  '
               '107.9  107.7  107.6\n',
               '-       107.4  107.2  107.1  106.9  106.7  106.4  106.2  '
               '105.9  105.7  105.4\n',
               '-       105.1  104.8  104.5  104.1  103.8  103.4  103.0  '
               '102.6  102.1  101.6\n',
               '-       101.2  100.7  100.1   99.6   99.0   98.4   97.8   '
               '97.1   96.4   95.7\n',
               '-        95.0   94.2   93.4   92.6   91.7   90.8   89.9   '
               '88.9   88.0   87.0\n',
               '-        85.9   84.8   83.7   82.6   81.4   80.2   78.9   '
               '77.7   76.4   75.0\n',
               '-   2   109.7  109.7  109.7  109.7  109.7  109.7  109.7  '
               '109.7  109.6  109.6\n',
               '-       109.6  109.6  109.6  109.6  109.6  109.6  109.6  '
               '109.6  109.6  109.6\n',
               '-       109.5  109.5  109.5  109.5  109.5  109.4  109.4  '
               '109.4  109.3  109.3\n',
               '-       109.3  109.2  109.2  109.1  109.1  109.0  109.0  '
               '108.9  108.8  108.7\n',
               '-       108.7  108.6  108.5  108.4  108.3  108.1  108.0  '
               '107.9  107.7  107.6\n',
               '-       107.4  107.2  107.1  106.9  106.7  106.4  106.2  '
               '105.9  105.7  105.4\n',
               '-       105.1  104.8  104.5  104.1  103.8  103.4  103.0  '
               '102.6  102.1  101.7\n',
               '-       101.2  100.7  100.1   99.6   99.0   98.4   97.8   '
               '97.1   96.4   95.7\n',
               '-        95.0   94.2   93.4   92.6   91.7   90.8   89.9   '
               '88.9   88.0   87.0\n',
               '-        85.9   84.8   83.7   82.6   81.4   80.2   78.9   '
               '77.7   76.4   75.0\n',
               '-   3   109.7  109.7  109.7  109.7  109.7  109.7  109.7  '
               '109.7  109.7  109.6\n',
               '-       109.6  109.6  109.6  109.6  109.6  109.6  109.6  '
               '109.6  109.6  109.6\n',
               '-       109.5  109.5  109.5  109.5  109.5  109.4  109.4  '
               '109.4  109.3  109.3\n',
               '-       109.3  109.2  109.2  109.1  109.1  109.0  109.0  '
               '108.9  108.8  108.7\n',
               '-       108.7  108.6  108.5  108.4  108.3  108.1  108.0  '
               '107.9  107.7  107.6\n',
               '-       107.4  107.2  107.1  106.9  106.7  106.4  106.2  '
               '105.9  105.7  105.4\n',
               '-       105.1  104.8  104.5  104.1  103.8  103.4  103.0  '
               '102.6  102.1  101.7\n',
               '-       101.2  100.7  100.1   99.6   99.0   98.4   97.8   '
               '97.1   96.4   95.7\n',
               '-        95.0   94.2   93.4   92.6   91.7   90.8   89.9   '
               '89.0   88.0   87.0\n',
               '-        85.9   84.8   83.7   82.6   81.4   80.2   79.0   '
               '77.7   76.4   75.0\n',
               '-   4   109.7  109.7  109.7  109.7  109.7  109.7  109.7  '
               '109.7  109.7  109.7\n',
               '-       109.6  109.6  109.6  109.6  109.6  109.6  109.6  '
               '109.6  109.6  109.6\n',
               '-       109.5  109.5  109.5  109.5  109.5  109.4  109.4  '
               '109.4  109.3  109.3\n',
               '-       109.3  109.2  109.2  109.1  109.1  109.0  109.0  '
               '108.9  108.8  108.8\n',
               '-       108.7  108.6  108.5  108.4  108.3  108.2  108.0  '
               '107.9  107.7  107.6\n',
               '-       107.4  107.3  107.1  106.9  106.7  106.4  106.2  '
               '106.0  105.7  105.4\n',
               '-       105.1  104.8  104.5  104.1  103.8  103.4  103.0  '
               '102.6  102.1  101.7\n',
               '-       101.2  100.7  100.1   99.6   99.0   98.4   97.8   '
               '97.1   96.4   95.7\n',
               '-        95.0   94.2   93.4   92.6   91.7   90.8   89.9   '
               '89.0   88.0   87.0\n',
               '-        85.9   84.8   83.7   82.6   81.4   80.2   79.0   '
               '77.7   76.4   75.0\n',
               '-   5   109.7  109.7  109.7  109.7  109.7  109.7  109.7  '
               '109.7  109.7  109.6\n',
               '-       109.6  109.6  109.6  109.6  109.6  109.6  109.6  '
               '109.6  109.6  109.6\n',
               '-       109.5  109.5  109.5  109.5  109.5  109.4  109.4  '
               '109.4  109.3  109.3\n',
               '-       109.3  109.2  109.2  109.1  109.1  109.0  109.0  '
               '108.9  108.8  108.7\n',
               '-       108.7  108.6  108.5  108.4  108.3  108.1  108.0  '
               '107.9  107.7  107.6\n',
               '-       107.4  107.2  107.1  106.9  106.7  106.4  106.2  '
               '105.9  105.7  105.4\n',
               '-       105.1  104.8  104.5  104.1  103.8  103.4  103.0  '
               '102.6  102.1  101.7\n',
               '-       101.2  100.7  100.1   99.6   99.0   98.4   97.8   '
               '97.1   96.4   95.7\n',
               '-        95.0   94.2   93.4   92.6   91.7   90.8   89.9   '
               '89.0   88.0   87.0\n',
               '-        85.9   84.8   83.7   82.6   81.4   80.2   79.0   '
               '77.7   76.4   75.0\n',
               '-   6   109.7  109.7  109.7  109.7  109.7  109.7  109.7  '
               '109.7  109.6  109.6\n',
               '-       109.6  109.6  109.6  109.6  109.6  109.6  109.6  '
               '109.6  109.6  109.6\n',
               '-       109.5  109.5  109.5  109.5  109.5  109.4  109.4  '
               '109.4  109.3  109.3\n',
               '-       109.3  109.2  109.2  109.1  109.1  109.0  109.0  '
               '108.9  108.8  108.7\n',
               '-       108.7  108.6  108.5  108.4  108.3  108.1  108.0  '
               '107.9  107.7  107.6\n',
               '-       107.4  107.2  107.1  106.9  106.7  106.4  106.2  '
               '105.9  105.7  105.4\n',
               '-       105.1  104.8  104.5  104.1  103.8  103.4  103.0  '
               '102.6  102.1  101.7\n',
               '-       101.2  100.7  100.1   99.6   99.0   98.4   97.8   '
               '97.1   96.4   95.7\n',
               '-        95.0   94.2   93.4   92.6   91.7   90.8   89.9   '
               '88.9   88.0   87.0\n',
               '-        85.9   84.8   83.7   82.6   81.4   80.2   78.9   '
               '77.7   76.4   75.0\n',
               '-   7   109.7  109.7  109.7  109.7  109.7  109.7  109.7  '
               '109.7  109.6  109.6\n',
               '-       109.6  109.6  109.6  109.6  109.6  109.6  109.6  '
               '109.6  109.6  109.5\n',
               '-       109.5  109.5  109.5  109.5  109.5  109.4  109.4  '
               '109.4  109.3  109.3\n',
               '-       109.3  109.2  109.2  109.1  109.1  109.0  109.0  '
               '108.9  108.8  108.7\n',
               '-       108.7  108.6  108.5  108.4  108.3  108.1  108.0  '
               '107.9  107.7  107.6\n',
               '-       107.4  107.2  107.1  106.9  106.7  106.4  106.2  '
               '105.9  105.7  105.4\n',
               '-       105.1  104.8  104.5  104.1  103.8  103.4  103.0  '
               '102.6  102.1  101.6\n',
               '-       101.2  100.7  100.1   99.6   99.0   98.4   97.8   '
               '97.1   96.4   95.7\n',
               '-        95.0   94.2   93.4   92.6   91.7   90.8   89.9   '
               '88.9   88.0   87.0\n',
               '-        85.9   84.8   83.7   82.6   81.4   80.2   78.9   '
               '77.7   76.4   75.0\n',
               '-1\n',
               '-  VOLUMETRIC BUDGET FOR ENTIRE MODEL AT END OF TIME STEP   '
               '30, STRESS PERIOD  15\n',
               '-  '
               '------------------------------------------------------------------------------\n',
               '-\n',
               '-     CUMULATIVE VOLUMES      L**3       RATES FOR THIS TIME '
               'STEP      L**3/T\n',
               '-     ------------------                 '
               '------------------------\n',
               '-\n',
               '-           IN:                                      IN:\n',
               '-           ---                                      ---\n',
               '-             STORAGE =    10091011.0000               STORAGE '
               '=           0.1067\n',
               '-       CONSTANT HEAD =           0.0000         CONSTANT HEAD '
               '=           0.0000\n',
               '-     HEAD DEP BOUNDS =           0.0000       HEAD DEP BOUNDS '
               '=           0.0000\n',
               '-      STREAM LEAKAGE =    13580514.0000        STREAM LEAKAGE '
               '=           0.2016\n',
               '-\n',
               '-            TOTAL IN =    23671524.0000              TOTAL IN '
               '=           0.3083\n',
               '-\n',
               '-          OUT:                                     OUT:\n',
               '-          ----                                     ----\n',
               '-             STORAGE =     7662137.5000               STORAGE '
               '=       6.1306E-02\n',
               '-       CONSTANT HEAD =           0.0000         CONSTANT HEAD '
               '=           0.0000\n',
               '-     HEAD DEP BOUNDS =    16009370.0000       HEAD DEP BOUNDS '
               '=           0.2469\n',
               '-      STREAM LEAKAGE =           0.0000        STREAM LEAKAGE '
               '=           0.0000\n',
               '-\n',
               '-           TOTAL OUT =    23671508.0000             TOTAL OUT '
               '=           0.3082\n',
               '-\n',
               '-            IN - OUT =          16.0000              IN - OUT '
               '=       1.0684E-04\n',
               '-\n',
               '- PERCENT DISCREPANCY =           0.00     PERCENT DISCREPANCY '
               '=           0.03\n',
               '-\n',
               '-\n',
               '-\n',
               '-\n',
               '-\n',
               '-\n',
               '-         TIME SUMMARY AT END OF TIME STEP   30 IN STRESS '
               'PERIOD   15\n',
               '-                    SECONDS     MINUTES      HOURS       '
               'DAYS        YEARS\n',
               '-                    '
               '-----------------------------------------------------------\n',
               '-   TIME STEP LENGTH 2.49961E+05  4166.0      69.434      '
               '2.8931     7.92080E-03\n',
               '- STRESS PERIOD TIME 2.59200E+06  43200.      720.00      '
               '30.000     8.21355E-02\n',
               '-         TOTAL TIME 3.88800E+07 6.48000E+05  10800.      '
               '450.00      1.2320    \n',
               '-1\n',
               '-1\n',
               '-                            STRESS PERIOD NO.   16, LENGTH '
               '=   2592000.    \n',
               '-                            '
               '-----------------------------------------------\n',
               '-\n',
               '-                              NUMBER OF TIME STEPS =    30\n',
               '-\n',
               '-                               MULTIPLIER FOR DELT =     '
               '1.100\n',
               '-\n',
               '-                            INITIAL TIME STEP SIZE =   '
               '15757.40    \n',
               '-\n',
               '- REUSING NON-PARAMETER GHB CELLS FROM LAST STRESS PERIOD\n',
               '-\n',
               '-      7 GHB CELLS\n',
               '- \n',
               '- SOLVING FOR HEAD \n',
               '-\n',
               '- NO OUTPUT CONTROL FOR STRESS PERIOD   16   TIME STEP    1\n',
               '- \n',
               '- SOLVING FOR HEAD \n',
               '-\n',
               '- NO OUTPUT CONTROL FOR STRESS PERIOD   16   TIME STEP    2\n',
               '- \n',
               '- SOLVING FOR HEAD \n',
               '-\n',
               '- NO OUTPUT CONTROL FOR STRESS PERIOD   16   TIME STEP    3\n',
               '- \n',
               '- SOLVING FOR HEAD \n',
               '-\n',
               '- NO OUTPUT CONTROL FOR STRESS PERIOD   16   TIME STEP    4\n',
               '- \n',
               '- SOLVING FOR HEAD \n',
               '-\n',
               '- NO OUTPUT CONTROL FOR STRESS PERIOD   16   TIME STEP    5\n',
               '- \n',
               '- SOLVING FOR HEAD \n',
               '-\n',
               '- NO OUTPUT CONTROL FOR STRESS PERIOD   16   TIME STEP    6\n',
               '- \n',
               '- SOLVING FOR HEAD \n',
               '-\n',
               '- NO OUTPUT CONTROL FOR STRESS PERIOD   16   TIME STEP    7\n',
               '- \n',
               '- SOLVING FOR HEAD \n',
               '-\n',
               '- NO OUTPUT CONTROL FOR STRESS PERIOD   16   TIME STEP    8\n',
               '- \n',
               '- SOLVING FOR HEAD \n',
               '-\n',
               '- NO OUTPUT CONTROL FOR STRESS PERIOD   16   TIME STEP    9\n',
               '- \n',
               '- SOLVING FOR HEAD \n',
               '-\n',
               '- NO OUTPUT CONTROL FOR STRESS PERIOD   16   TIME STEP   10\n',
               '- \n',
               '- SOLVING FOR HEAD \n',
               '-\n',
               '- NO OUTPUT CONTROL FOR STRESS PERIOD   16   TIME STEP   11\n',
               '- \n',
               '- SOLVING FOR HEAD \n',
               '-\n',
               '- NO OUTPUT CONTROL FOR STRESS PERIOD   16   TIME STEP   12\n',
               '- \n',
               '- SOLVING FOR HEAD \n',
               '-\n',
               '- NO OUTPUT CONTROL FOR STRESS PERIOD   16   TIME STEP   13\n',
               '- \n',
               '- SOLVING FOR HEAD \n',
               '-\n',
               '- NO OUTPUT CONTROL FOR STRESS PERIOD   16   TIME STEP   14\n',
               '- \n',
               '- SOLVING FOR HEAD \n',
               '-\n',
               '- NO OUTPUT CONTROL FOR STRESS PERIOD   16   TIME STEP   15\n',
               '- \n',
               '- SOLVING FOR HEAD \n',
               '-\n',
               '- NO OUTPUT CONTROL FOR STRESS PERIOD   16   TIME STEP   16\n',
               '- \n',
               '- SOLVING FOR HEAD \n',
               '-\n',
               '- NO OUTPUT CONTROL FOR STRESS PERIOD   16   TIME STEP   17\n',
               '- \n',
               '- SOLVING FOR HEAD \n',
               '-\n',
               '- NO OUTPUT CONTROL FOR STRESS PERIOD   16   TIME STEP   18\n',
               '- \n',
               '- SOLVING FOR HEAD \n',
               '-\n',
               '- NO OUTPUT CONTROL FOR STRESS PERIOD   16   TIME STEP   19\n',
               '- \n',
               '- SOLVING FOR HEAD \n',
               '-\n',
               '- NO OUTPUT CONTROL FOR STRESS PERIOD   16   TIME STEP   20\n',
               '- \n',
               '- SOLVING FOR HEAD \n',
               '-\n',
               '- NO OUTPUT CONTROL FOR STRESS PERIOD   16   TIME STEP   21\n',
               '- \n',
               '- SOLVING FOR HEAD \n',
               '-\n',
               '- NO OUTPUT CONTROL FOR STRESS PERIOD   16   TIME STEP   22\n',
               '- \n',
               '- SOLVING FOR HEAD \n',
               '-\n',
               '- NO OUTPUT CONTROL FOR STRESS PERIOD   16   TIME STEP   23\n',
               '- \n',
               '- SOLVING FOR HEAD \n',
               '-\n',
               '- NO OUTPUT CONTROL FOR STRESS PERIOD   16   TIME STEP   24\n',
               '- \n',
               '- SOLVING FOR HEAD \n',
               '-\n',
               '- NO OUTPUT CONTROL FOR STRESS PERIOD   16   TIME STEP   25\n',
               '- \n',
               '- SOLVING FOR HEAD \n',
               '-\n',
               '- NO OUTPUT CONTROL FOR STRESS PERIOD   16   TIME STEP   26\n',
               '- \n',
               '- SOLVING FOR HEAD \n',
               '-\n',
               '- NO OUTPUT CONTROL FOR STRESS PERIOD   16   TIME STEP   27\n',
               '- \n',
               '- SOLVING FOR HEAD \n',
               '-\n',
               '- NO OUTPUT CONTROL FOR STRESS PERIOD   16   TIME STEP   28\n',
               '- \n',
               '- SOLVING FOR HEAD \n',
               '-\n',
               '- NO OUTPUT CONTROL FOR STRESS PERIOD   16   TIME STEP   29\n',
               '- \n',
               '- SOLVING FOR HEAD \n',
               '-\n',
               '- NO OUTPUT CONTROL FOR STRESS PERIOD   16   TIME STEP   30\n',
               '-\n',
               '-\n',
               '-\n',
               '- STREAM LISTING     PERIOD     16   STEP       30\n',
               '-\n',
               '- LAYER ROW COL. STREAM  RCH.   FLOW INTO    STREAM     FLOW '
               'OUT OF   OVRLND.    DIRECT     STREAM      STREAM      '
               'STREAM     STREAM  STREAMBED   FLOW TO   CHNG. UNSAT. \n',
               '-                SEG.NO.  NO.   STRM. RCH.    LOSS       STRM. '
               'RCH.   RUNOFF     PRECIP       ET         HEAD        '
               'DEPTH      WIDTH  CONDCTNC.   WAT. TAB.\n',
               '-\n',
               '-   1    4    1     1     1    2.2410E+01  5.7770E-03   '
               '2.2404E+01  0.000E+00  0.000E+00  0.000E+00  1.43421E+02  '
               '3.571E+00  6.283E+00  1.420E-03  5.895E-03 -1.175E-04\n',
               '-   1    4    2     1     2    2.2404E+01  5.7756E-03   '
               '2.2398E+01  0.000E+00  0.000E+00  0.000E+00  1.43120E+02  '
               '3.570E+00  6.281E+00  1.420E-03  5.892E-03 -1.167E-04\n',
               '-   1    4    3     1     3    2.2398E+01  5.7742E-03   '
               '2.2393E+01  0.000E+00  0.000E+00  0.000E+00  1.42820E+02  '
               '3.570E+00  6.280E+00  1.420E-03  5.890E-03 -1.158E-04\n',
               '-   1    4    4     1     4    2.2393E+01  5.7728E-03   '
               '2.2387E+01  0.000E+00  0.000E+00  0.000E+00  1.42520E+02  '
               '3.570E+00  6.278E+00  1.419E-03  5.888E-03 -1.149E-04\n',
               '-   1    4    5     1     5    2.2387E+01  5.7714E-03   '
               '2.2381E+01  0.000E+00  0.000E+00  0.000E+00  1.42219E+02  '
               '3.569E+00  6.277E+00  1.419E-03  5.885E-03 -1.140E-04\n',
               '-   1    4    6     1     6    2.2381E+01  5.7700E-03   '
               '2.2375E+01  0.000E+00  0.000E+00  0.000E+00  1.41919E+02  '
               '3.569E+00  6.276E+00  1.419E-03  5.883E-03 -1.131E-04\n',
               '-   1    4    7     1     7    2.2375E+01  5.7686E-03   '
               '2.2369E+01  0.000E+00  0.000E+00  0.000E+00  1.41619E+02  '
               '3.569E+00  6.274E+00  1.419E-03  5.881E-03 -1.127E-04\n',
               '-   1    4    8     1     8    2.2369E+01  5.7672E-03   '
               '2.2364E+01  0.000E+00  0.000E+00  0.000E+00  1.41318E+02  '
               '3.568E+00  6.273E+00  1.418E-03  5.880E-03 -1.123E-04\n',
               '-   1    4    9     1     9    2.2364E+01  5.7658E-03   '
               '2.2358E+01  0.000E+00  0.000E+00  0.000E+00  1.41018E+02  '
               '3.568E+00  6.271E+00  1.418E-03  5.878E-03 -1.120E-04\n',
               '-   1    4   10     1    10    2.2358E+01  5.7643E-03   '
               '2.2352E+01  0.000E+00  0.000E+00  0.000E+00  1.40717E+02  '
               '3.567E+00  6.270E+00  1.418E-03  5.876E-03 -1.122E-04\n',
               '-   1    4   11     1    11    2.2352E+01  5.7629E-03   '
               '2.2346E+01  0.000E+00  0.000E+00  0.000E+00  1.40417E+02  '
               '3.567E+00  6.268E+00  1.418E-03  5.869E-03 -1.062E-04\n',
               '-   1    4   12     1    12    2.2346E+01  5.7615E-03   '
               '2.2341E+01  0.000E+00  0.000E+00  0.000E+00  1.40117E+02  '
               '3.567E+00  6.267E+00  1.418E-03  5.862E-03 -1.010E-04\n',
               '-   1    4   13     1    13    2.2341E+01  5.7601E-03   '
               '2.2335E+01  0.000E+00  0.000E+00  0.000E+00  1.39816E+02  '
               '3.566E+00  6.266E+00  1.417E-03  5.861E-03 -1.005E-04\n',
               '-   1    4   14     1    14    2.2335E+01  5.7587E-03   '
               '2.2329E+01  0.000E+00  0.000E+00  0.000E+00  1.39516E+02  '
               '3.566E+00  6.264E+00  1.417E-03  5.859E-03 -1.001E-04\n',
               '-   1    4   15     1    15    2.2329E+01  5.7573E-03   '
               '2.2323E+01  0.000E+00  0.000E+00  0.000E+00  1.39216E+02  '
               '3.566E+00  6.263E+00  1.417E-03  5.857E-03 -9.959E-05\n',
               '-   1    4   16     1    16    2.2323E+01  5.7559E-03   '
               '2.2318E+01  0.000E+00  0.000E+00  0.000E+00  1.38915E+02  '
               '3.565E+00  6.261E+00  1.417E-03  5.855E-03 -9.907E-05\n',
               '-   1    4   17     1    17    2.2318E+01  5.7545E-03   '
               '2.2312E+01  0.000E+00  0.000E+00  0.000E+00  1.38615E+02  '
               '3.565E+00  6.260E+00  1.416E-03  5.853E-03 -9.856E-05\n',
               '-   1    4   18     1    18    2.2312E+01  5.7531E-03   '
               '2.2306E+01  0.000E+00  0.000E+00  0.000E+00  1.38315E+02  '
               '3.565E+00  6.259E+00  1.416E-03  5.851E-03 -9.805E-05\n',
               '-   1    4   19     1    19    2.2306E+01  5.7517E-03   '
               '2.2300E+01  0.000E+00  0.000E+00  0.000E+00  1.38014E+02  '
               '3.564E+00  6.257E+00  1.416E-03  5.849E-03 -9.751E-05\n',
               '-   1    4   20     1    20    2.2300E+01  5.7503E-03   '
               '2.2295E+01  0.000E+00  0.000E+00  0.000E+00  1.37714E+02  '
               '3.564E+00  6.256E+00  1.416E-03  5.847E-03 -9.693E-05\n',
               '-   1    4   21     1    21    2.2295E+01  5.7489E-03   '
               '2.2289E+01  0.000E+00  0.000E+00  0.000E+00  1.37414E+02  '
               '3.564E+00  6.254E+00  1.416E-03  5.845E-03 -9.630E-05\n',
               '-   1    4   22     1    22    2.2289E+01  5.7475E-03   '
               '2.2283E+01  0.000E+00  0.000E+00  0.000E+00  1.37113E+02  '
               '3.563E+00  6.253E+00  1.415E-03  5.843E-03 -9.563E-05\n',
               '-   1    4   23     1    23    2.2283E+01  5.7461E-03   '
               '2.2277E+01  0.000E+00  0.000E+00  0.000E+00  1.36813E+02  '
               '3.563E+00  6.251E+00  1.415E-03  5.841E-03 -9.491E-05\n',
               '-   1    4   24     1    24    2.2277E+01  5.7447E-03   '
               '2.2272E+01  0.000E+00  0.000E+00  0.000E+00  1.36512E+02  '
               '3.563E+00  6.250E+00  1.415E-03  5.839E-03 -9.414E-05\n',
               '-   1    4   25     1    25    2.2272E+01  5.7433E-03   '
               '2.2266E+01  0.000E+00  0.000E+00  0.000E+00  1.36212E+02  '
               '3.562E+00  6.249E+00  1.415E-03  5.837E-03 -9.333E-05\n',
               '-   1    4   26     1    26    2.2266E+01  5.7419E-03   '
               '2.2260E+01  0.000E+00  0.000E+00  0.000E+00  1.35912E+02  '
               '3.562E+00  6.247E+00  1.414E-03  5.834E-03 -9.248E-05\n',
               '-   1    4   27     1    27    2.2260E+01  5.7405E-03   '
               '2.2254E+01  0.000E+00  0.000E+00  0.000E+00  1.35611E+02  '
               '3.561E+00  6.246E+00  1.414E-03  5.832E-03 -9.159E-05\n',
               '-   1    4   28     1    28    2.2254E+01  5.7390E-03   '
               '2.2249E+01  0.000E+00  0.000E+00  0.000E+00  1.35311E+02  '
               '3.561E+00  6.244E+00  1.414E-03  5.830E-03 -9.068E-05\n',
               '-   1    4   29     1    29    2.2249E+01  5.7376E-03   '
               '2.2243E+01  0.000E+00  0.000E+00  0.000E+00  1.35011E+02  '
               '3.561E+00  6.243E+00  1.414E-03  5.827E-03 -8.972E-05\n',
               '-   1    4   30     1    30    2.2243E+01  5.7362E-03   '
               '2.2237E+01  0.000E+00  0.000E+00  0.000E+00  1.34710E+02  '
               '3.560E+00  6.241E+00  1.414E-03  5.825E-03 -8.871E-05\n',
               '-   1    4   31     1    31    2.2237E+01  5.7348E-03   '
               '2.2231E+01  0.000E+00  0.000E+00  0.000E+00  1.34410E+02  '
               '3.560E+00  6.240E+00  1.413E-03  5.822E-03 -8.766E-05\n',
               '-   1    4   32     1    32    2.2231E+01  5.7334E-03   '
               '2.2226E+01  0.000E+00  0.000E+00  0.000E+00  1.34110E+02  '
               '3.560E+00  6.239E+00  1.413E-03  5.820E-03 -8.655E-05\n',
               '-   1    4   33     1    33    2.2226E+01  5.7320E-03   '
               '2.2220E+01  0.000E+00  0.000E+00  0.000E+00  1.33809E+02  '
               '3.559E+00  6.237E+00  1.413E-03  5.817E-03 -8.539E-05\n',
               '-   1    4   34     1    34    2.2220E+01  5.7306E-03   '
               '2.2214E+01  0.000E+00  0.000E+00  0.000E+00  1.33509E+02  '
               '3.559E+00  6.236E+00  1.413E-03  5.815E-03 -8.417E-05\n',
               '-   1    4   35     1    35    2.2214E+01  5.7292E-03   '
               '2.2209E+01  0.000E+00  0.000E+00  0.000E+00  1.33209E+02  '
               '3.559E+00  6.234E+00  1.412E-03  5.812E-03 -8.291E-05\n',
               '-   1    4   36     1    36    2.2209E+01  5.7278E-03   '
               '2.2203E+01  0.000E+00  0.000E+00  0.000E+00  1.32908E+02  '
               '3.558E+00  6.233E+00  1.412E-03  5.809E-03 -8.160E-05\n',
               '-   1    4   37     1    37    2.2203E+01  5.7264E-03   '
               '2.2197E+01  0.000E+00  0.000E+00  0.000E+00  1.32608E+02  '
               '3.558E+00  6.232E+00  1.412E-03  5.807E-03 -8.025E-05\n',
               '-   1    4   38     1    38    2.2197E+01  5.7250E-03   '
               '2.2191E+01  0.000E+00  0.000E+00  0.000E+00  1.32308E+02  '
               '3.558E+00  6.230E+00  1.412E-03  5.804E-03 -7.885E-05\n',
               '-   1    4   39     1    39    2.2191E+01  5.7236E-03   '
               '2.2186E+01  0.000E+00  0.000E+00  0.000E+00  1.32007E+02  '
               '3.557E+00  6.229E+00  1.412E-03  5.801E-03 -7.741E-05\n',
               '-   1    4   40     1    40    2.2186E+01  5.7222E-03   '
               '2.2180E+01  0.000E+00  0.000E+00  0.000E+00  1.31707E+02  '
               '3.557E+00  6.227E+00  1.411E-03  5.798E-03 -7.591E-05\n',
               '-   1    4   41     1    41    2.2180E+01  5.7208E-03   '
               '2.2174E+01  0.000E+00  0.000E+00  0.000E+00  1.31406E+02  '
               '3.556E+00  6.226E+00  1.411E-03  5.795E-03 -7.438E-05\n',
               '-   1    4   42     1    42    2.2174E+01  5.7194E-03   '
               '2.2168E+01  0.000E+00  0.000E+00  0.000E+00  1.31106E+02  '
               '3.556E+00  6.225E+00  1.411E-03  5.792E-03 -7.279E-05\n',
               '-   1    4   43     1    43    2.2168E+01  5.7180E-03   '
               '2.2163E+01  0.000E+00  0.000E+00  0.000E+00  1.30806E+02  '
               '3.556E+00  6.223E+00  1.411E-03  5.789E-03 -7.116E-05\n',
               '-   1    4   44     1    44    2.2163E+01  5.7167E-03   '
               '2.2157E+01  0.000E+00  0.000E+00  0.000E+00  1.30505E+02  '
               '3.555E+00  6.222E+00  1.410E-03  5.786E-03 -6.949E-05\n',
               '-   1    4   45     1    45    2.2157E+01  5.7153E-03   '
               '2.2151E+01  0.000E+00  0.000E+00  0.000E+00  1.30205E+02  '
               '3.555E+00  6.220E+00  1.410E-03  5.783E-03 -6.777E-05\n',
               '-   1    4   46     1    46    2.2151E+01  5.7139E-03   '
               '2.2146E+01  0.000E+00  0.000E+00  0.000E+00  1.29905E+02  '
               '3.555E+00  6.219E+00  1.410E-03  5.780E-03 -6.602E-05\n',
               '-   1    4   47     1    47    2.2146E+01  5.7125E-03   '
               '2.2140E+01  0.000E+00  0.000E+00  0.000E+00  1.29604E+02  '
               '3.554E+00  6.217E+00  1.410E-03  5.777E-03 -6.423E-05\n',
               '-   1    4   48     1    48    2.2140E+01  5.7111E-03   '
               '2.2134E+01  0.000E+00  0.000E+00  0.000E+00  1.29304E+02  '
               '3.554E+00  6.216E+00  1.410E-03  5.773E-03 -6.241E-05\n',
               '-   1    4   49     1    49    2.2134E+01  5.7097E-03   '
               '2.2128E+01  0.000E+00  0.000E+00  0.000E+00  1.29004E+02  '
               '3.554E+00  6.215E+00  1.409E-03  5.770E-03 -6.056E-05\n',
               '-   1    4   50     1    50    2.2128E+01  5.7083E-03   '
               '2.2123E+01  0.000E+00  0.000E+00  0.000E+00  1.28703E+02  '
               '3.553E+00  6.213E+00  1.409E-03  5.767E-03 -5.869E-05\n',
               '-   1    4   51     1    51    2.2123E+01  5.7069E-03   '
               '2.2117E+01  0.000E+00  0.000E+00  0.000E+00  1.28403E+02  '
               '3.553E+00  6.212E+00  1.409E-03  5.764E-03 -5.679E-05\n',
               '-   1    4   52     1    52    2.2117E+01  5.7055E-03   '
               '2.2111E+01  0.000E+00  0.000E+00  0.000E+00  1.28103E+02  '
               '3.553E+00  6.210E+00  1.409E-03  5.760E-03 -5.487E-05\n',
               '-   1    4   53     1    53    2.2111E+01  5.7041E-03   '
               '2.2106E+01  0.000E+00  0.000E+00  0.000E+00  1.27802E+02  '
               '3.552E+00  6.209E+00  1.408E-03  5.757E-03 -5.294E-05\n',
               '-   1    4   54     1    54    2.2106E+01  5.7027E-03   '
               '2.2100E+01  0.000E+00  0.000E+00  0.000E+00  1.27502E+02  '
               '3.552E+00  6.208E+00  1.408E-03  5.754E-03 -5.100E-05\n',
               '-   1    4   55     1    55    2.2100E+01  5.7013E-03   '
               '2.2094E+01  0.000E+00  0.000E+00  0.000E+00  1.27202E+02  '
               '3.552E+00  6.206E+00  1.408E-03  5.750E-03 -4.905E-05\n',
               '-   1    4   56     1    56    2.2094E+01  5.6999E-03   '
               '2.2089E+01  0.000E+00  0.000E+00  0.000E+00  1.26901E+02  '
               '3.551E+00  6.205E+00  1.408E-03  5.747E-03 -4.710E-05\n',
               '-   1    4   57     1    57    2.2089E+01  5.6985E-03   '
               '2.2083E+01  0.000E+00  0.000E+00  0.000E+00  1.26601E+02  '
               '3.551E+00  6.203E+00  1.408E-03  5.744E-03 -4.515E-05\n',
               '-   1    4   58     1    58    2.2083E+01  5.6971E-03   '
               '2.2077E+01  0.000E+00  0.000E+00  0.000E+00  1.26300E+02  '
               '3.550E+00  6.202E+00  1.407E-03  5.740E-03 -4.321E-05\n',
               '-   1    4   59     1    59    2.2077E+01  5.6957E-03   '
               '2.2071E+01  0.000E+00  0.000E+00  0.000E+00  1.26000E+02  '
               '3.550E+00  6.200E+00  1.407E-03  5.737E-03 -4.129E-05\n',
               '-   1    4   60     1    60    2.2071E+01  5.6943E-03   '
               '2.2066E+01  0.000E+00  0.000E+00  0.000E+00  1.25700E+02  '
               '3.550E+00  6.199E+00  1.407E-03  5.734E-03 -3.940E-05\n',
               '-   1    4   61     1    61    2.2066E+01  5.6929E-03   '
               '2.2060E+01  0.000E+00  0.000E+00  0.000E+00  1.25399E+02  '
               '3.549E+00  6.198E+00  1.407E-03  5.730E-03 -3.753E-05\n',
               '-   1    4   62     1    62    2.2060E+01  5.6916E-03   '
               '2.2054E+01  0.000E+00  0.000E+00  0.000E+00  1.25099E+02  '
               '3.549E+00  6.196E+00  1.407E-03  5.727E-03 -3.570E-05\n',
               '-   1    4   63     1    63    2.2054E+01  5.6902E-03   '
               '2.2049E+01  0.000E+00  0.000E+00  0.000E+00  1.24799E+02  '
               '3.549E+00  6.195E+00  1.406E-03  5.724E-03 -3.392E-05\n',
               '-   1    4   64     1    64    2.2049E+01  5.6888E-03   '
               '2.2043E+01  0.000E+00  0.000E+00  0.000E+00  1.24498E+02  '
               '3.548E+00  6.193E+00  1.406E-03  5.721E-03 -3.219E-05\n',
               '-   1    4   65     1    65    2.2043E+01  5.6874E-03   '
               '2.2037E+01  0.000E+00  0.000E+00  0.000E+00  1.24198E+02  '
               '3.548E+00  6.192E+00  1.406E-03  5.718E-03 -3.052E-05\n',
               '-   1    4   66     1    66    2.2037E+01  5.6860E-03   '
               '2.2032E+01  0.000E+00  0.000E+00  0.000E+00  1.23898E+02  '
               '3.548E+00  6.191E+00  1.406E-03  5.715E-03 -2.892E-05\n',
               '-   1    4   67     1    67    2.2032E+01  5.6846E-03   '
               '2.2026E+01  0.000E+00  0.000E+00  0.000E+00  1.23597E+02  '
               '3.547E+00  6.189E+00  1.405E-03  5.712E-03 -2.740E-05\n',
               '-   1    4   68     1    68    2.2026E+01  5.6832E-03   '
               '2.2020E+01  0.000E+00  0.000E+00  0.000E+00  1.23297E+02  '
               '3.547E+00  6.188E+00  1.405E-03  5.709E-03 -2.596E-05\n',
               '-   1    4   69     1    69    2.2020E+01  5.6818E-03   '
               '2.2015E+01  0.000E+00  0.000E+00  0.000E+00  1.22997E+02  '
               '3.547E+00  6.186E+00  1.405E-03  5.706E-03 -2.463E-05\n',
               '-   1    4   70     1    70    2.2015E+01  5.6804E-03   '
               '2.2009E+01  0.000E+00  0.000E+00  0.000E+00  1.22696E+02  '
               '3.546E+00  6.185E+00  1.405E-03  5.704E-03 -2.340E-05\n',
               '-   1    4   71     1    71    2.2009E+01  5.6790E-03   '
               '2.2003E+01  0.000E+00  0.000E+00  0.000E+00  1.22396E+02  '
               '3.546E+00  6.184E+00  1.405E-03  5.701E-03 -2.229E-05\n',
               '-   1    4   72     1    72    2.2003E+01  5.6777E-03   '
               '2.1998E+01  0.000E+00  0.000E+00  0.000E+00  1.22096E+02  '
               '3.546E+00  6.182E+00  1.404E-03  5.699E-03 -2.130E-05\n',
               '-   1    4   73     1    73    2.1998E+01  5.6763E-03   '
               '2.1992E+01  0.000E+00  0.000E+00  0.000E+00  1.21795E+02  '
               '3.545E+00  6.181E+00  1.404E-03  5.697E-03 -2.045E-05\n',
               '-   1    4   74     1    74    2.1992E+01  5.6749E-03   '
               '2.1986E+01  0.000E+00  0.000E+00  0.000E+00  1.21495E+02  '
               '3.545E+00  6.179E+00  1.404E-03  5.695E-03 -1.973E-05\n',
               '-   1    4   75     1    75    2.1986E+01  5.6735E-03   '
               '2.1980E+01  0.000E+00  0.000E+00  0.000E+00  1.21194E+02  '
               '3.544E+00  6.178E+00  1.404E-03  5.693E-03 -1.917E-05\n',
               '-   1    4   76     1    76    2.1980E+01  5.6721E-03   '
               '2.1975E+01  0.000E+00  0.000E+00  0.000E+00  1.20894E+02  '
               '3.544E+00  6.176E+00  1.403E-03  5.691E-03 -1.876E-05\n',
               '-   1    4   77     1    77    2.1975E+01  5.6707E-03   '
               '2.1969E+01  0.000E+00  0.000E+00  0.000E+00  1.20594E+02  '
               '3.544E+00  6.175E+00  1.403E-03  5.689E-03 -1.852E-05\n',
               '-   1    4   78     1    78    2.1969E+01  5.6693E-03   '
               '2.1963E+01  0.000E+00  0.000E+00  0.000E+00  1.20293E+02  '
               '3.543E+00  6.174E+00  1.403E-03  5.688E-03 -1.847E-05\n',
               '-   1    4   79     1    79    2.1963E+01  5.6680E-03   '
               '2.1958E+01  0.000E+00  0.000E+00  0.000E+00  1.19993E+02  '
               '3.543E+00  6.172E+00  1.403E-03  5.687E-03 -1.859E-05\n',
               '-   1    4   80     1    80    2.1958E+01  5.6666E-03   '
               '2.1952E+01  0.000E+00  0.000E+00  0.000E+00  1.19693E+02  '
               '3.543E+00  6.171E+00  1.403E-03  5.685E-03 -1.890E-05\n',
               '-   1    4   81     1    81    2.1952E+01  5.6652E-03   '
               '2.1946E+01  0.000E+00  0.000E+00  0.000E+00  1.19392E+02  '
               '3.542E+00  6.169E+00  1.402E-03  5.685E-03 -1.940E-05\n',
               '-   1    4   82     1    82    2.1946E+01  5.6638E-03   '
               '2.1941E+01  0.000E+00  0.000E+00  0.000E+00  1.19092E+02  '
               '3.542E+00  6.168E+00  1.402E-03  5.690E-03 -2.615E-05\n',
               '-   1    4   83     1    83    2.1941E+01  5.6624E-03   '
               '2.1935E+01  0.000E+00  0.000E+00  0.000E+00  1.18792E+02  '
               '3.542E+00  6.167E+00  1.402E-03  5.689E-03 -2.703E-05\n',
               '-   1    4   84     1    84    2.1935E+01  5.6610E-03   '
               '2.1929E+01  0.000E+00  0.000E+00  0.000E+00  1.18491E+02  '
               '3.541E+00  6.165E+00  1.402E-03  5.689E-03 -2.810E-05\n',
               '-   1    4   85     1    85    2.1929E+01  5.6596E-03   '
               '2.1924E+01  0.000E+00  0.000E+00  0.000E+00  1.18191E+02  '
               '3.541E+00  6.164E+00  1.401E-03  5.689E-03 -2.935E-05\n',
               '-   1    4   86     1    86    2.1924E+01  5.6583E-03   '
               '2.1918E+01  0.000E+00  0.000E+00  0.000E+00  1.17891E+02  '
               '3.541E+00  6.162E+00  1.401E-03  5.689E-03 -3.075E-05\n',
               '-   1    4   87     1    87    2.1918E+01  5.6569E-03   '
               '2.1913E+01  0.000E+00  0.000E+00  0.000E+00  1.17590E+02  '
               '3.540E+00  6.161E+00  1.401E-03  5.689E-03 -3.230E-05\n',
               '-   1    4   88     1    88    2.1913E+01  5.6555E-03   '
               '2.1907E+01  0.000E+00  0.000E+00  0.000E+00  1.17290E+02  '
               '3.540E+00  6.160E+00  1.401E-03  5.690E-03 -3.406E-05\n',
               '-   1    4   89     1    89    2.1907E+01  5.6541E-03   '
               '2.1901E+01  0.000E+00  0.000E+00  0.000E+00  1.16990E+02  '
               '3.540E+00  6.158E+00  1.401E-03  5.690E-03 -3.586E-05\n',
               '-   1    4   90     1    90    2.1901E+01  5.6527E-03   '
               '2.1896E+01  0.000E+00  0.000E+00  0.000E+00  1.16689E+02  '
               '3.539E+00  6.157E+00  1.400E-03  5.690E-03 -3.759E-05\n',
               '-   1    4   91     1    91    2.1896E+01  5.6514E-03   '
               '2.1890E+01  0.000E+00  0.000E+00  0.000E+00  1.16389E+02  '
               '3.539E+00  6.155E+00  1.400E-03  5.691E-03 -3.928E-05\n',
               '-   1    4   92     1    92    2.1890E+01  5.6500E-03   '
               '2.1884E+01  0.000E+00  0.000E+00  0.000E+00  1.16088E+02  '
               '3.538E+00  6.154E+00  1.400E-03  5.692E-03 -4.225E-05\n',
               '-   1    4   93     1    93    2.1884E+01  5.6486E-03   '
               '2.1879E+01  0.000E+00  0.000E+00  0.000E+00  1.15788E+02  '
               '3.538E+00  6.153E+00  1.400E-03  5.694E-03 -4.496E-05\n',
               '-   1    4   94     1    94    2.1879E+01  5.6472E-03   '
               '2.1873E+01  0.000E+00  0.000E+00  0.000E+00  1.15488E+02  '
               '3.538E+00  6.151E+00  1.399E-03  5.694E-03 -4.685E-05\n',
               '-   1    4   95     1    95    2.1873E+01  5.6458E-03   '
               '2.1867E+01  0.000E+00  0.000E+00  0.000E+00  1.15187E+02  '
               '3.537E+00  6.150E+00  1.399E-03  5.665E-03 -1.902E-05\n',
               '-   1    4   96     1    96    2.1867E+01  5.6444E-03   '
               '2.1862E+01  0.000E+00  0.000E+00  0.000E+00  1.14887E+02  '
               '3.537E+00  6.148E+00  1.399E-03  5.380E-03  2.649E-04\n',
               '-   1    4   97     1    97    2.1862E+01  5.6431E-03   '
               '2.1856E+01  0.000E+00  0.000E+00  0.000E+00  1.14587E+02  '
               '3.537E+00  6.147E+00  1.399E-03  5.072E-03  5.707E-04\n',
               '-   1    4   98     1    98    2.1856E+01  5.6417E-03   '
               '2.1850E+01  0.000E+00  0.000E+00  0.000E+00  1.14286E+02  '
               '3.536E+00  6.146E+00  1.399E-03  4.752E-03  8.899E-04\n',
               '-   1    4   99     1    99    2.1850E+01  5.6403E-03   '
               '2.1845E+01  0.000E+00  0.000E+00  0.000E+00  1.13986E+02  '
               '3.536E+00  6.144E+00  1.398E-03  4.563E-03  1.078E-03\n',
               '-   1    4  100     1   100    2.1845E+01  5.6389E-03   '
               '2.1839E+01  0.000E+00  0.000E+00  0.000E+00  1.13686E+02  '
               '3.536E+00  6.143E+00  1.398E-03  4.557E-03  1.082E-03\n',
               '-\n',
               '-\n',
               '-\n',
               '-1\n',
               '-  VOLUMETRIC BUDGET FOR UNSATURATED ZONE BENEATH STREAMS AT '
               'END OF TIME STEP    30 STRESS PERIOD  16\n',
               '-  '
               '------------------------------------------------------------------------------------------------\n',
               '-\n',
               '-    CUMULATIVE VOLUMES             L**3    RATES FOR THIS '
               'TIME STEP         L**3/T\n',
               '-    ------------------                     '
               '------------------------\n',
               '-\n',
               '-\n',
               '-          STREAM LOSS =     15528982.0000            STREAM '
               'LOSS =            0.5708\n',
               '-    CHANGE IN STORAGE =       837420.3125      CHANGE IN '
               'STORAGE =       -2.1390E-03\n',
               '-       RECHARGE TO GW =     14695178.0000         RECHARGE TO '
               'GW =            0.5729\n',
               '-\n',
               '-             TOTAL IN =     15528982.0000               TOTAL '
               'IN =            0.5729\n',
               '-\n',
               '-            TOTAL OUT =     15532598.0000              TOTAL '
               'OUT =            0.5729\n',
               '-\n',
               '-             IN - OUT =        -3616.0000               IN - '
               'OUT =        5.9605E-07\n',
               '-\n',
               '-  PERCENT DISCREPANCY =           -0.01      PERCENT '
               'DISCREPANCY =             0.00\n',
               '-\n',
               '-\n',
               '-\n',
               '-1\n',
               '-  VOLUMETRIC BUDGET FOR ENTIRE MODEL AT END OF TIME STEP   '
               '30, STRESS PERIOD  16\n',
               '-  '
               '------------------------------------------------------------------------------\n',
               '-\n',
               '-     CUMULATIVE VOLUMES      L**3       RATES FOR THIS TIME '
               'STEP      L**3/T\n',
               '-     ------------------                 '
               '------------------------\n',
               '-\n',
               '-           IN:                                      IN:\n',
               '-           ---                                      ---\n',
               '-             STORAGE =    10157756.0000               STORAGE '
               '=           0.0000\n',
               '-       CONSTANT HEAD =           0.0000         CONSTANT HEAD '
               '=           0.0000\n',
               '-     HEAD DEP BOUNDS =           0.0000       HEAD DEP BOUNDS '
               '=           0.0000\n',
               '-      STREAM LEAKAGE =    14695236.0000        STREAM LEAKAGE '
               '=           0.5729\n',
               '-\n',
               '-            TOTAL IN =    24852992.0000              TOTAL IN '
               '=           0.5729\n',
               '-\n',
               '-          OUT:                                     OUT:\n',
               '-          ----                                     ----\n',
               '-             STORAGE =     8196036.5000               STORAGE '
               '=           0.3187\n',
               '-       CONSTANT HEAD =           0.0000         CONSTANT HEAD '
               '=           0.0000\n',
               '-     HEAD DEP BOUNDS =    16656919.0000       HEAD DEP BOUNDS '
               '=           0.2541\n',
               '-      STREAM LEAKAGE =           0.0000        STREAM LEAKAGE '
               '=           0.0000\n',
               '-\n',
               '-           TOTAL OUT =    24852956.0000             TOTAL OUT '
               '=           0.5728\n',
               '-\n',
               '-            IN - OUT =          36.0000              IN - OUT '
               '=       1.2559E-04\n',
               '-\n',
               '- PERCENT DISCREPANCY =           0.00     PERCENT DISCREPANCY '
               '=           0.02\n',
               '-\n',
               '-\n',
               '-\n',
               '-\n',
               '-\n',
               '-\n',
               '-         TIME SUMMARY AT END OF TIME STEP   30 IN STRESS '
               'PERIOD   16\n',
               '-                    SECONDS     MINUTES      HOURS       '
               'DAYS        YEARS\n',
               '-                    '
               '-----------------------------------------------------------\n',
               '-   TIME STEP LENGTH 2.49961E+05  4166.0      69.434      '
               '2.8931     7.92080E-03\n',
               '- STRESS PERIOD TIME 2.59200E+06  43200.      720.00      '
               '30.000     8.21355E-02\n',
               '-         TOTAL TIME 4.14720E+07 6.91200E+05  11520.      '
               '480.00      1.3142    \n',
               '-1\n',
               '-1\n',
               '-                            STRESS PERIOD NO.   17, LENGTH '
               '=   2592000.    \n',
               '-                            '
               '-----------------------------------------------\n',
               '-\n',
               '-                              NUMBER OF TIME STEPS =    30\n',
               '-\n',
               '-                               MULTIPLIER FOR DELT =     '
               '1.100\n',
               '-\n',
               '-                            INITIAL TIME STEP SIZE =   '
               '15757.40    \n',
               '-\n',
               '- REUSING NON-PARAMETER GHB CELLS FROM LAST STRESS PERIOD\n',
               '-\n',
               '-      7 GHB CELLS\n',
               '- \n',
               '- SOLVING FOR HEAD \n',
               '-\n',
               '- NO OUTPUT CONTROL FOR STRESS PERIOD   17   TIME STEP    1\n',
               '- \n',
               '- SOLVING FOR HEAD \n',
               '-\n',
               '- NO OUTPUT CONTROL FOR STRESS PERIOD   17   TIME STEP    2\n',
               '- \n',
               '- SOLVING FOR HEAD \n',
               '-\n',
               '- NO OUTPUT CONTROL FOR STRESS PERIOD   17   TIME STEP    3\n',
               '- \n',
               '- SOLVING FOR HEAD \n',
               '-\n',
               '- NO OUTPUT CONTROL FOR STRESS PERIOD   17   TIME STEP    4\n',
               '- \n',
               '- SOLVING FOR HEAD \n',
               '-\n',
               '- NO OUTPUT CONTROL FOR STRESS PERIOD   17   TIME STEP    5\n',
               '- \n',
               '- SOLVING FOR HEAD \n',
               '-\n',
               '- NO OUTPUT CONTROL FOR STRESS PERIOD   17   TIME STEP    6\n',
               '- \n',
               '- SOLVING FOR HEAD \n',
               '-\n',
               '- NO OUTPUT CONTROL FOR STRESS PERIOD   17   TIME STEP    7\n',
               '- \n',
               '- SOLVING FOR HEAD \n',
               '-\n',
               '- NO OUTPUT CONTROL FOR STRESS PERIOD   17   TIME STEP    8\n',
               '- \n',
               '- SOLVING FOR HEAD \n',
               '-\n',
               '- NO OUTPUT CONTROL FOR STRESS PERIOD   17   TIME STEP    9\n',
               '- \n',
               '- SOLVING FOR HEAD \n',
               '-\n',
               '- NO OUTPUT CONTROL FOR STRESS PERIOD   17   TIME STEP   10\n',
               '- \n',
               '- SOLVING FOR HEAD \n',
               '-\n',
               '- NO OUTPUT CONTROL FOR STRESS PERIOD   17   TIME STEP   11\n',
               '- \n',
               '- SOLVING FOR HEAD \n',
               '-\n',
               '- NO OUTPUT CONTROL FOR STRESS PERIOD   17   TIME STEP   12\n',
               '- \n',
               '- SOLVING FOR HEAD \n',
               '-\n',
               '- NO OUTPUT CONTROL FOR STRESS PERIOD   17   TIME STEP   13\n',
               '- \n',
               '- SOLVING FOR HEAD \n',
               '-\n',
               '- NO OUTPUT CONTROL FOR STRESS PERIOD   17   TIME STEP   14\n',
               '- \n',
               '- SOLVING FOR HEAD \n',
               '-\n',
               '- NO OUTPUT CONTROL FOR STRESS PERIOD   17   TIME STEP   15\n',
               '- \n',
               '- SOLVING FOR HEAD \n',
               '-\n',
               '- NO OUTPUT CONTROL FOR STRESS PERIOD   17   TIME STEP   16\n',
               '- \n',
               '- SOLVING FOR HEAD \n',
               '-\n',
               '- NO OUTPUT CONTROL FOR STRESS PERIOD   17   TIME STEP   17\n',
               '- \n',
               '- SOLVING FOR HEAD \n',
               '-\n',
               '- NO OUTPUT CONTROL FOR STRESS PERIOD   17   TIME STEP   18\n',
               '- \n',
               '- SOLVING FOR HEAD \n',
               '-\n',
               '- NO OUTPUT CONTROL FOR STRESS PERIOD   17   TIME STEP   19\n',
               '- \n',
               '- SOLVING FOR HEAD \n',
               '-\n',
               '- NO OUTPUT CONTROL FOR STRESS PERIOD   17   TIME STEP   20\n',
               '- \n',
               '- SOLVING FOR HEAD \n',
               '-\n',
               '- NO OUTPUT CONTROL FOR STRESS PERIOD   17   TIME STEP   21\n',
               '- \n',
               '- SOLVING FOR HEAD \n',
               '-\n',
               '- NO OUTPUT CONTROL FOR STRESS PERIOD   17   TIME STEP   22\n',
               '- \n',
               '- SOLVING FOR HEAD \n',
               '-\n',
               '- NO OUTPUT CONTROL FOR STRESS PERIOD   17   TIME STEP   23\n',
               '- \n',
               '- SOLVING FOR HEAD \n',
               '-\n',
               '- NO OUTPUT CONTROL FOR STRESS PERIOD   17   TIME STEP   24\n',
               '- \n',
               '- SOLVING FOR HEAD \n',
               '-\n',
               '- NO OUTPUT CONTROL FOR STRESS PERIOD   17   TIME STEP   25\n',
               '- \n',
               '- SOLVING FOR HEAD \n',
               '-\n',
               '- NO OUTPUT CONTROL FOR STRESS PERIOD   17   TIME STEP   26\n',
               '- \n',
               '- SOLVING FOR HEAD \n',
               '-\n',
               '- NO OUTPUT CONTROL FOR STRESS PERIOD   17   TIME STEP   27\n',
               '- \n',
               '- SOLVING FOR HEAD \n',
               '-\n',
               '- NO OUTPUT CONTROL FOR STRESS PERIOD   17   TIME STEP   28\n',
               '- \n',
               '- SOLVING FOR HEAD \n',
               '-\n',
               '- NO OUTPUT CONTROL FOR STRESS PERIOD   17   TIME STEP   29\n',
               '- \n',
               '- SOLVING FOR HEAD \n',
               '-\n',
               '- NO OUTPUT CONTROL FOR STRESS PERIOD   17   TIME STEP   30\n',
               '-\n',
               '-\n',
               '-\n',
               '- STREAM LISTING     PERIOD     17   STEP       30\n',
               '-\n',
               '- LAYER ROW COL. STREAM  RCH.   FLOW INTO    STREAM     FLOW '
               'OUT OF   OVRLND.    DIRECT     STREAM      STREAM      '
               'STREAM     STREAM  STREAMBED   FLOW TO   CHNG. UNSAT. \n',
               '-                SEG.NO.  NO.   STRM. RCH.    LOSS       STRM. '
               'RCH.   RUNOFF     PRECIP       ET         HEAD        '
               'DEPTH      WIDTH  CONDCTNC.   WAT. TAB.\n',
               '-\n',
               '-   1    4    1     1     1    1.7470E+01  4.6763E-03   '
               '1.7465E+01  0.000E+00  0.000E+00  0.000E+00  1.43029E+02  '
               '3.179E+00  5.616E+00  1.271E-03  4.755E-03 -7.833E-05\n',
               '-   1    4    2     1     2    1.7465E+01  4.6752E-03   '
               '1.7461E+01  0.000E+00  0.000E+00  0.000E+00  1.42728E+02  '
               '3.178E+00  5.615E+00  1.271E-03  4.753E-03 -7.826E-05\n',
               '-   1    4    3     1     3    1.7461E+01  4.6742E-03   '
               '1.7456E+01  0.000E+00  0.000E+00  0.000E+00  1.42428E+02  '
               '3.178E+00  5.615E+00  1.271E-03  4.752E-03 -7.816E-05\n',
               '-   1    4    4     1     4    1.7456E+01  4.6732E-03   '
               '1.7451E+01  0.000E+00  0.000E+00  0.000E+00  1.42127E+02  '
               '3.177E+00  5.614E+00  1.271E-03  4.751E-03 -7.803E-05\n',
               '-   1    4    5     1     5    1.7451E+01  4.6721E-03   '
               '1.7447E+01  0.000E+00  0.000E+00  0.000E+00  1.41827E+02  '
               '3.177E+00  5.614E+00  1.270E-03  4.750E-03 -7.788E-05\n',
               '-   1    4    6     1     6    1.7447E+01  4.6711E-03   '
               '1.7442E+01  0.000E+00  0.000E+00  0.000E+00  1.41527E+02  '
               '3.177E+00  5.613E+00  1.270E-03  4.749E-03 -7.769E-05\n',
               '-   1    4    7     1     7    1.7442E+01  4.6701E-03   '
               '1.7437E+01  0.000E+00  0.000E+00  0.000E+00  1.41226E+02  '
               '3.176E+00  5.613E+00  1.270E-03  4.748E-03 -7.748E-05\n',
               '-   1    4    8     1     8    1.7437E+01  4.6690E-03   '
               '1.7433E+01  0.000E+00  0.000E+00  0.000E+00  1.40926E+02  '
               '3.176E+00  5.612E+00  1.270E-03  4.746E-03 -7.724E-05\n',
               '-   1    4    9     1     9    1.7433E+01  4.6680E-03   '
               '1.7428E+01  0.000E+00  0.000E+00  0.000E+00  1.40625E+02  '
               '3.175E+00  5.612E+00  1.270E-03  4.745E-03 -7.696E-05\n',
               '-   1    4   10     1    10    1.7428E+01  4.6670E-03   '
               '1.7423E+01  0.000E+00  0.000E+00  0.000E+00  1.40325E+02  '
               '3.175E+00  5.611E+00  1.270E-03  4.744E-03 -7.666E-05\n',
               '-   1    4   11     1    11    1.7423E+01  4.6659E-03   '
               '1.7419E+01  0.000E+00  0.000E+00  0.000E+00  1.40025E+02  '
               '3.175E+00  5.611E+00  1.270E-03  4.742E-03 -7.633E-05\n',
               '-   1    4   12     1    12    1.7419E+01  4.6649E-03   '
               '1.7414E+01  0.000E+00  0.000E+00  0.000E+00  1.39724E+02  '
               '3.174E+00  5.610E+00  1.269E-03  4.741E-03 -7.596E-05\n',
               '-   1    4   13     1    13    1.7414E+01  4.6639E-03   '
               '1.7409E+01  0.000E+00  0.000E+00  0.000E+00  1.39424E+02  '
               '3.174E+00  5.610E+00  1.269E-03  4.739E-03 -7.558E-05\n',
               '-   1    4   14     1    14    1.7409E+01  4.6629E-03   '
               '1.7405E+01  0.000E+00  0.000E+00  0.000E+00  1.39123E+02  '
               '3.173E+00  5.609E+00  1.269E-03  4.738E-03 -7.516E-05\n',
               '-   1    4   15     1    15    1.7405E+01  4.6618E-03   '
               '1.7400E+01  0.000E+00  0.000E+00  0.000E+00  1.38823E+02  '
               '3.173E+00  5.609E+00  1.269E-03  4.737E-03 -7.472E-05\n',
               '-   1    4   16     1    16    1.7400E+01  4.6608E-03   '
               '1.7395E+01  0.000E+00  0.000E+00  0.000E+00  1.38522E+02  '
               '3.172E+00  5.608E+00  1.269E-03  4.735E-03 -7.425E-05\n',
               '-   1    4   17     1    17    1.7395E+01  4.6598E-03   '
               '1.7391E+01  0.000E+00  0.000E+00  0.000E+00  1.38222E+02  '
               '3.172E+00  5.608E+00  1.269E-03  4.734E-03 -7.376E-05\n',
               '-   1    4   18     1    18    1.7391E+01  4.6587E-03   '
               '1.7386E+01  0.000E+00  0.000E+00  0.000E+00  1.37922E+02  '
               '3.172E+00  5.607E+00  1.269E-03  4.732E-03 -7.323E-05\n',
               '-   1    4   19     1    19    1.7386E+01  4.6577E-03   '
               '1.7381E+01  0.000E+00  0.000E+00  0.000E+00  1.37621E+02  '
               '3.171E+00  5.607E+00  1.268E-03  4.730E-03 -7.267E-05\n',
               '-   1    4   20     1    20    1.7381E+01  4.6567E-03   '
               '1.7377E+01  0.000E+00  0.000E+00  0.000E+00  1.37321E+02  '
               '3.171E+00  5.606E+00  1.268E-03  4.729E-03 -7.208E-05\n',
               '-   1    4   21     1    21    1.7377E+01  4.6556E-03   '
               '1.7372E+01  0.000E+00  0.000E+00  0.000E+00  1.37020E+02  '
               '3.170E+00  5.606E+00  1.268E-03  4.727E-03 -7.146E-05\n',
               '-   1    4   22     1    22    1.7372E+01  4.6546E-03   '
               '1.7367E+01  0.000E+00  0.000E+00  0.000E+00  1.36720E+02  '
               '3.170E+00  5.605E+00  1.268E-03  4.725E-03 -7.081E-05\n',
               '-   1    4   23     1    23    1.7367E+01  4.6536E-03   '
               '1.7363E+01  0.000E+00  0.000E+00  0.000E+00  1.36420E+02  '
               '3.170E+00  5.605E+00  1.268E-03  4.724E-03 -7.013E-05\n',
               '-   1    4   24     1    24    1.7363E+01  4.6526E-03   '
               '1.7358E+01  0.000E+00  0.000E+00  0.000E+00  1.36119E+02  '
               '3.169E+00  5.604E+00  1.268E-03  4.722E-03 -6.941E-05\n',
               '-   1    4   25     1    25    1.7358E+01  4.6515E-03   '
               '1.7353E+01  0.000E+00  0.000E+00  0.000E+00  1.35819E+02  '
               '3.169E+00  5.604E+00  1.268E-03  4.720E-03 -6.866E-05\n',
               '-   1    4   26     1    26    1.7353E+01  4.6505E-03   '
               '1.7349E+01  0.000E+00  0.000E+00  0.000E+00  1.35518E+02  '
               '3.168E+00  5.603E+00  1.268E-03  4.718E-03 -6.787E-05\n',
               '-   1    4   27     1    27    1.7349E+01  4.6495E-03   '
               '1.7344E+01  0.000E+00  0.000E+00  0.000E+00  1.35218E+02  '
               '3.168E+00  5.603E+00  1.267E-03  4.717E-03 -6.704E-05\n',
               '-   1    4   28     1    28    1.7344E+01  4.6484E-03   '
               '1.7339E+01  0.000E+00  0.000E+00  0.000E+00  1.34917E+02  '
               '3.167E+00  5.602E+00  1.267E-03  4.715E-03 -6.617E-05\n',
               '-   1    4   29     1    29    1.7339E+01  4.6474E-03   '
               '1.7335E+01  0.000E+00  0.000E+00  0.000E+00  1.34617E+02  '
               '3.167E+00  5.602E+00  1.267E-03  4.713E-03 -6.527E-05\n',
               '-   1    4   30     1    30    1.7335E+01  4.6464E-03   '
               '1.7330E+01  0.000E+00  0.000E+00  0.000E+00  1.34317E+02  '
               '3.167E+00  5.601E+00  1.267E-03  4.711E-03 -6.432E-05\n',
               '-   1    4   31     1    31    1.7330E+01  4.6454E-03   '
               '1.7325E+01  0.000E+00  0.000E+00  0.000E+00  1.34016E+02  '
               '3.166E+00  5.601E+00  1.267E-03  4.709E-03 -6.334E-05\n',
               '-   1    4   32     1    32    1.7325E+01  4.6443E-03   '
               '1.7321E+01  0.000E+00  0.000E+00  0.000E+00  1.33716E+02  '
               '3.166E+00  5.600E+00  1.267E-03  4.707E-03 -6.231E-05\n',
               '-   1    4   33     1    33    1.7321E+01  4.6433E-03   '
               '1.7316E+01  0.000E+00  0.000E+00  0.000E+00  1.33415E+02  '
               '3.165E+00  5.600E+00  1.267E-03  4.705E-03 -6.125E-05\n',
               '-   1    4   34     1    34    1.7316E+01  4.6423E-03   '
               '1.7311E+01  0.000E+00  0.000E+00  0.000E+00  1.33115E+02  '
               '3.165E+00  5.599E+00  1.266E-03  4.702E-03 -6.015E-05\n',
               '-   1    4   35     1    35    1.7311E+01  4.6412E-03   '
               '1.7307E+01  0.000E+00  0.000E+00  0.000E+00  1.32815E+02  '
               '3.165E+00  5.599E+00  1.266E-03  4.700E-03 -5.900E-05\n',
               '-   1    4   36     1    36    1.7307E+01  4.6402E-03   '
               '1.7302E+01  0.000E+00  0.000E+00  0.000E+00  1.32514E+02  '
               '3.164E+00  5.598E+00  1.266E-03  4.698E-03 -5.782E-05\n',
               '-   1    4   37     1    37    1.7302E+01  4.6392E-03   '
               '1.7298E+01  0.000E+00  0.000E+00  0.000E+00  1.32214E+02  '
               '3.164E+00  5.598E+00  1.266E-03  4.696E-03 -5.660E-05\n',
               '-   1    4   38     1    38    1.7298E+01  4.6382E-03   '
               '1.7293E+01  0.000E+00  0.000E+00  0.000E+00  1.31913E+02  '
               '3.163E+00  5.597E+00  1.266E-03  4.693E-03 -5.533E-05\n',
               '-   1    4   39     1    39    1.7293E+01  4.6371E-03   '
               '1.7288E+01  0.000E+00  0.000E+00  0.000E+00  1.31613E+02  '
               '3.163E+00  5.597E+00  1.266E-03  4.691E-03 -5.403E-05\n',
               '-   1    4   40     1    40    1.7288E+01  4.6361E-03   '
               '1.7284E+01  0.000E+00  0.000E+00  0.000E+00  1.31312E+02  '
               '3.162E+00  5.596E+00  1.266E-03  4.689E-03 -5.269E-05\n',
               '-   1    4   41     1    41    1.7284E+01  4.6351E-03   '
               '1.7279E+01  0.000E+00  0.000E+00  0.000E+00  1.31012E+02  '
               '3.162E+00  5.596E+00  1.266E-03  4.686E-03 -5.132E-05\n',
               '-   1    4   42     1    42    1.7279E+01  4.6341E-03   '
               '1.7274E+01  0.000E+00  0.000E+00  0.000E+00  1.30712E+02  '
               '3.162E+00  5.595E+00  1.265E-03  4.684E-03 -4.991E-05\n',
               '-   1    4   43     1    43    1.7274E+01  4.6330E-03   '
               '1.7270E+01  0.000E+00  0.000E+00  0.000E+00  1.30411E+02  '
               '3.161E+00  5.595E+00  1.265E-03  4.682E-03 -4.847E-05\n',
               '-   1    4   44     1    44    1.7270E+01  4.6320E-03   '
               '1.7265E+01  0.000E+00  0.000E+00  0.000E+00  1.30111E+02  '
               '3.161E+00  5.594E+00  1.265E-03  4.679E-03 -4.699E-05\n',
               '-   1    4   45     1    45    1.7265E+01  4.6310E-03   '
               '1.7260E+01  0.000E+00  0.000E+00  0.000E+00  1.29810E+02  '
               '3.160E+00  5.594E+00  1.265E-03  4.676E-03 -4.549E-05\n',
               '-   1    4   46     1    46    1.7260E+01  4.6300E-03   '
               '1.7256E+01  0.000E+00  0.000E+00  0.000E+00  1.29510E+02  '
               '3.160E+00  5.593E+00  1.265E-03  4.674E-03 -4.396E-05\n',
               '-   1    4   47     1    47    1.7256E+01  4.6289E-03   '
               '1.7251E+01  0.000E+00  0.000E+00  0.000E+00  1.29210E+02  '
               '3.160E+00  5.593E+00  1.265E-03  4.671E-03 -4.241E-05\n',
               '-   1    4   48     1    48    1.7251E+01  4.6279E-03   '
               '1.7247E+01  0.000E+00  0.000E+00  0.000E+00  1.28909E+02  '
               '3.159E+00  5.592E+00  1.265E-03  4.669E-03 -4.083E-05\n',
               '-   1    4   49     1    49    1.7247E+01  4.6269E-03   '
               '1.7242E+01  0.000E+00  0.000E+00  0.000E+00  1.28609E+02  '
               '3.159E+00  5.592E+00  1.264E-03  4.666E-03 -3.923E-05\n',
               '-   1    4   50     1    50    1.7242E+01  4.6259E-03   '
               '1.7237E+01  0.000E+00  0.000E+00  0.000E+00  1.28308E+02  '
               '3.158E+00  5.591E+00  1.264E-03  4.663E-03 -3.762E-05\n',
               '-   1    4   51     1    51    1.7237E+01  4.6248E-03   '
               '1.7233E+01  0.000E+00  0.000E+00  0.000E+00  1.28008E+02  '
               '3.158E+00  5.591E+00  1.264E-03  4.661E-03 -3.599E-05\n',
               '-   1    4   52     1    52    1.7233E+01  4.6238E-03   '
               '1.7228E+01  0.000E+00  0.000E+00  0.000E+00  1.27707E+02  '
               '3.157E+00  5.590E+00  1.264E-03  4.658E-03 -3.435E-05\n',
               '-   1    4   53     1    53    1.7228E+01  4.6228E-03   '
               '1.7223E+01  0.000E+00  0.000E+00  0.000E+00  1.27407E+02  '
               '3.157E+00  5.590E+00  1.264E-03  4.655E-03 -3.271E-05\n',
               '-   1    4   54     1    54    1.7223E+01  4.6218E-03   '
               '1.7219E+01  0.000E+00  0.000E+00  0.000E+00  1.27107E+02  '
               '3.157E+00  5.589E+00  1.264E-03  4.653E-03 -3.106E-05\n',
               '-   1    4   55     1    55    1.7219E+01  4.6207E-03   '
               '1.7214E+01  0.000E+00  0.000E+00  0.000E+00  1.26806E+02  '
               '3.156E+00  5.589E+00  1.264E-03  4.650E-03 -2.942E-05\n',
               '-   1    4   56     1    56    1.7214E+01  4.6197E-03   '
               '1.7210E+01  0.000E+00  0.000E+00  0.000E+00  1.26506E+02  '
               '3.156E+00  5.588E+00  1.263E-03  4.648E-03 -2.778E-05\n',
               '-   1    4   57     1    57    1.7210E+01  4.6187E-03   '
               '1.7205E+01  0.000E+00  0.000E+00  0.000E+00  1.26205E+02  '
               '3.155E+00  5.588E+00  1.263E-03  4.645E-03 -2.616E-05\n',
               '-   1    4   58     1    58    1.7205E+01  4.6177E-03   '
               '1.7200E+01  0.000E+00  0.000E+00  0.000E+00  1.25905E+02  '
               '3.155E+00  5.587E+00  1.263E-03  4.642E-03 -2.455E-05\n',
               '-   1    4   59     1    59    1.7200E+01  4.6167E-03   '
               '1.7196E+01  0.000E+00  0.000E+00  0.000E+00  1.25605E+02  '
               '3.155E+00  5.587E+00  1.263E-03  4.640E-03 -2.296E-05\n',
               '-   1    4   60     1    60    1.7196E+01  4.6156E-03   '
               '1.7191E+01  0.000E+00  0.000E+00  0.000E+00  1.25304E+02  '
               '3.154E+00  5.586E+00  1.263E-03  4.637E-03 -2.140E-05\n',
               '-   1    4   61     1    61    1.7191E+01  4.6146E-03   '
               '1.7187E+01  0.000E+00  0.000E+00  0.000E+00  1.25004E+02  '
               '3.154E+00  5.586E+00  1.263E-03  4.634E-03 -1.988E-05\n',
               '-   1    4   62     1    62    1.7187E+01  4.6136E-03   '
               '1.7182E+01  0.000E+00  0.000E+00  0.000E+00  1.24703E+02  '
               '3.153E+00  5.585E+00  1.263E-03  4.632E-03 -1.839E-05\n',
               '-   1    4   63     1    63    1.7182E+01  4.6126E-03   '
               '1.7177E+01  0.000E+00  0.000E+00  0.000E+00  1.24403E+02  '
               '3.153E+00  5.585E+00  1.263E-03  4.630E-03 -1.695E-05\n',
               '-   1    4   64     1    64    1.7177E+01  4.6115E-03   '
               '1.7173E+01  0.000E+00  0.000E+00  0.000E+00  1.24102E+02  '
               '3.152E+00  5.584E+00  1.262E-03  4.627E-03 -1.556E-05\n',
               '-   1    4   65     1    65    1.7173E+01  4.6105E-03   '
               '1.7168E+01  0.000E+00  0.000E+00  0.000E+00  1.23802E+02  '
               '3.152E+00  5.584E+00  1.262E-03  4.625E-03 -1.422E-05\n',
               '-   1    4   66     1    66    1.7168E+01  4.6095E-03   '
               '1.7163E+01  0.000E+00  0.000E+00  0.000E+00  1.23502E+02  '
               '3.152E+00  5.583E+00  1.262E-03  4.622E-03 -1.295E-05\n',
               '-   1    4   67     1    67    1.7163E+01  4.6085E-03   '
               '1.7159E+01  0.000E+00  0.000E+00  0.000E+00  1.23201E+02  '
               '3.151E+00  5.583E+00  1.262E-03  4.620E-03 -1.175E-05\n',
               '-   1    4   68     1    68    1.7159E+01  4.6075E-03   '
               '1.7154E+01  0.000E+00  0.000E+00  0.000E+00  1.22901E+02  '
               '3.151E+00  5.582E+00  1.262E-03  4.618E-03 -1.063E-05\n',
               '-   1    4   69     1    69    1.7154E+01  4.6064E-03   '
               '1.7150E+01  0.000E+00  0.000E+00  0.000E+00  1.22600E+02  '
               '3.150E+00  5.582E+00  1.262E-03  4.616E-03 -9.588E-06\n',
               '-   1    4   70     1    70    1.7150E+01  4.6054E-03   '
               '1.7145E+01  0.000E+00  0.000E+00  0.000E+00  1.22300E+02  '
               '3.150E+00  5.581E+00  1.262E-03  4.614E-03 -8.635E-06\n',
               '-   1    4   71     1    71    1.7145E+01  4.6044E-03   '
               '1.7140E+01  0.000E+00  0.000E+00  0.000E+00  1.22000E+02  '
               '3.150E+00  5.581E+00  1.261E-03  4.612E-03 -7.777E-06\n',
               '-   1    4   72     1    72    1.7140E+01  4.6034E-03   '
               '1.7136E+01  0.000E+00  0.000E+00  0.000E+00  1.21699E+02  '
               '3.149E+00  5.580E+00  1.261E-03  4.610E-03 -7.020E-06\n',
               '-   1    4   73     1    73    1.7136E+01  4.6024E-03   '
               '1.7131E+01  0.000E+00  0.000E+00  0.000E+00  1.21399E+02  '
               '3.149E+00  5.580E+00  1.261E-03  4.609E-03 -6.365E-06\n',
               '-   1    4   74     1    74    1.7131E+01  4.6013E-03   '
               '1.7127E+01  0.000E+00  0.000E+00  0.000E+00  1.21098E+02  '
               '3.148E+00  5.579E+00  1.261E-03  4.607E-03 -5.819E-06\n',
               '-   1    4   75     1    75    1.7127E+01  4.6003E-03   '
               '1.7122E+01  0.000E+00  0.000E+00  0.000E+00  1.20798E+02  '
               '3.148E+00  5.579E+00  1.261E-03  4.606E-03 -5.387E-06\n',
               '-   1    4   76     1    76    1.7122E+01  4.5993E-03   '
               '1.7117E+01  0.000E+00  0.000E+00  0.000E+00  1.20497E+02  '
               '3.147E+00  5.578E+00  1.261E-03  4.604E-03 -5.068E-06\n',
               '-   1    4   77     1    77    1.7117E+01  4.5983E-03   '
               '1.7113E+01  0.000E+00  0.000E+00  0.000E+00  1.20197E+02  '
               '3.147E+00  5.578E+00  1.261E-03  4.603E-03 -4.868E-06\n',
               '-   1    4   78     1    78    1.7113E+01  4.5973E-03   '
               '1.7108E+01  0.000E+00  0.000E+00  0.000E+00  1.19897E+02  '
               '3.147E+00  5.577E+00  1.260E-03  4.602E-03 -4.783E-06\n',
               '-   1    4   79     1    79    1.7108E+01  4.5962E-03   '
               '1.7104E+01  0.000E+00  0.000E+00  0.000E+00  1.19596E+02  '
               '3.146E+00  5.577E+00  1.260E-03  4.601E-03 -4.808E-06\n',
               '-   1    4   80     1    80    1.7104E+01  4.5952E-03   '
               '1.7099E+01  0.000E+00  0.000E+00  0.000E+00  1.19296E+02  '
               '3.146E+00  5.576E+00  1.260E-03  4.600E-03 -4.937E-06\n',
               '-   1    4   81     1    81    1.7099E+01  4.5942E-03   '
               '1.7094E+01  0.000E+00  0.000E+00  0.000E+00  1.18995E+02  '
               '3.145E+00  5.576E+00  1.260E-03  4.599E-03 -5.163E-06\n',
               '-   1    4   82     1    82    1.7094E+01  4.5932E-03   '
               '1.7090E+01  0.000E+00  0.000E+00  0.000E+00  1.18695E+02  '
               '3.145E+00  5.575E+00  1.260E-03  4.599E-03 -5.477E-06\n',
               '-   1    4   83     1    83    1.7090E+01  4.5922E-03   '
               '1.7085E+01  0.000E+00  0.000E+00  0.000E+00  1.18395E+02  '
               '3.145E+00  5.575E+00  1.260E-03  4.598E-03 -5.863E-06\n',
               '-   1    4   84     1    84    1.7085E+01  4.5911E-03   '
               '1.7081E+01  0.000E+00  0.000E+00  0.000E+00  1.18094E+02  '
               '3.144E+00  5.574E+00  1.260E-03  4.597E-03 -6.305E-06\n',
               '-   1    4   85     1    85    1.7081E+01  4.5901E-03   '
               '1.7076E+01  0.000E+00  0.000E+00  0.000E+00  1.17794E+02  '
               '3.144E+00  5.574E+00  1.260E-03  4.597E-03 -6.779E-06\n',
               '-   1    4   86     1    86    1.7076E+01  4.5891E-03   '
               '1.7071E+01  0.000E+00  0.000E+00  0.000E+00  1.17493E+02  '
               '3.143E+00  5.573E+00  1.259E-03  4.599E-03 -1.005E-05\n',
               '-   1    4   87     1    87    1.7071E+01  4.5881E-03   '
               '1.7067E+01  0.000E+00  0.000E+00  0.000E+00  1.17193E+02  '
               '3.143E+00  5.573E+00  1.259E-03  4.602E-03 -1.345E-05\n',
               '-   1    4   88     1    88    1.7067E+01  4.5871E-03   '
               '1.7062E+01  0.000E+00  0.000E+00  0.000E+00  1.16892E+02  '
               '3.142E+00  5.572E+00  1.259E-03  4.601E-03 -1.385E-05\n',
               '-   1    4   89     1    89    1.7062E+01  4.5861E-03   '
               '1.7058E+01  0.000E+00  0.000E+00  0.000E+00  1.16592E+02  '
               '3.142E+00  5.572E+00  1.259E-03  4.600E-03 -1.416E-05\n',
               '-   1    4   90     1    90    1.7058E+01  4.5850E-03   '
               '1.7053E+01  0.000E+00  0.000E+00  0.000E+00  1.16292E+02  '
               '3.142E+00  5.571E+00  1.259E-03  4.599E-03 -1.436E-05\n',
               '-   1    4   91     1    91    1.7053E+01  4.5840E-03   '
               '1.7049E+01  0.000E+00  0.000E+00  0.000E+00  1.15991E+02  '
               '3.141E+00  5.571E+00  1.259E-03  4.598E-03 -1.442E-05\n',
               '-   1    4   92     1    92    1.7049E+01  4.5830E-03   '
               '1.7044E+01  0.000E+00  0.000E+00  0.000E+00  1.15691E+02  '
               '3.141E+00  5.570E+00  1.259E-03  4.597E-03 -1.434E-05\n',
               '-   1    4   93     1    93    1.7044E+01  4.5820E-03   '
               '1.7039E+01  0.000E+00  0.000E+00  0.000E+00  1.15390E+02  '
               '3.140E+00  5.570E+00  1.258E-03  4.596E-03 -1.410E-05\n',
               '-   1    4   94     1    94    1.7039E+01  4.5810E-03   '
               '1.7035E+01  0.000E+00  0.000E+00  0.000E+00  1.15090E+02  '
               '3.140E+00  5.569E+00  1.258E-03  4.595E-03 -1.373E-05\n',
               '-   1    4   95     1    95    1.7035E+01  4.5800E-03   '
               '1.7030E+01  0.000E+00  0.000E+00  0.000E+00  1.14790E+02  '
               '3.140E+00  5.569E+00  1.258E-03  4.593E-03 -1.324E-05\n',
               '-   1    4   96     1    96    1.7030E+01  4.5789E-03   '
               '1.7026E+01  0.000E+00  0.000E+00  0.000E+00  1.14489E+02  '
               '3.139E+00  5.568E+00  1.258E-03  4.592E-03 -1.269E-05\n',
               '-   1    4   97     1    97    1.7026E+01  4.5779E-03   '
               '1.7021E+01  0.000E+00  0.000E+00  0.000E+00  1.14189E+02  '
               '3.139E+00  5.568E+00  1.258E-03  4.590E-03 -1.211E-05\n',
               '-   1    4   98     1    98    1.7021E+01  4.5769E-03   '
               '1.7017E+01  0.000E+00  0.000E+00  0.000E+00  1.13888E+02  '
               '3.138E+00  5.567E+00  1.258E-03  4.588E-03 -1.156E-05\n',
               '-   1    4   99     1    99    1.7017E+01  4.5759E-03   '
               '1.7012E+01  0.000E+00  0.000E+00  0.000E+00  1.13588E+02  '
               '3.138E+00  5.567E+00  1.258E-03  4.590E-03 -1.443E-05\n',
               '-   1    4  100     1   100    1.7012E+01  4.5749E-03   '
               '1.7007E+01  0.000E+00  0.000E+00  0.000E+00  1.13287E+02  '
               '3.137E+00  5.566E+00  1.257E-03  4.593E-03 -1.819E-05\n',
               '-\n',
               '-\n',
               '-\n',
               '-1\n',
               '-  VOLUMETRIC BUDGET FOR UNSATURATED ZONE BENEATH STREAMS AT '
               'END OF TIME STEP    30 STRESS PERIOD  17\n',
               '-  '
               '------------------------------------------------------------------------------------------------\n',
               '-\n',
               '-    CUMULATIVE VOLUMES             L**3    RATES FOR THIS '
               'TIME STEP         L**3/T\n',
               '-    ------------------                     '
               '------------------------\n',
               '-\n',
               '-\n',
               '-          STREAM LOSS =     16727895.0000            STREAM '
               'LOSS =            0.4625\n',
               '-    CHANGE IN STORAGE =       759835.4375      CHANGE IN '
               'STORAGE =       -3.9463E-03\n',
               '-       RECHARGE TO GW =     15971666.0000         RECHARGE TO '
               'GW =            0.4665\n',
               '-\n',
               '-             TOTAL IN =     16727895.0000               TOTAL '
               'IN =            0.4665\n',
               '-\n',
               '-            TOTAL OUT =     16731501.0000              TOTAL '
               'OUT =            0.4665\n',
               '-\n',
               '-             IN - OUT =        -3606.0000               IN - '
               'OUT =        1.1921E-07\n',
               '-\n',
               '-  PERCENT DISCREPANCY =           -0.01      PERCENT '
               'DISCREPANCY =             0.00\n',
               '-\n',
               '-\n',
               '-\n',
               '-1\n',
               '-  VOLUMETRIC BUDGET FOR ENTIRE MODEL AT END OF TIME STEP   '
               '30, STRESS PERIOD  17\n',
               '-  '
               '------------------------------------------------------------------------------\n',
               '-\n',
               '-     CUMULATIVE VOLUMES      L**3       RATES FOR THIS TIME '
               'STEP      L**3/T\n',
               '-     ------------------                 '
               '------------------------\n',
               '-\n',
               '-           IN:                                      IN:\n',
               '-           ---                                      ---\n',
               '-             STORAGE =    10159860.0000               STORAGE '
               '=       5.5612E-04\n',
               '-       CONSTANT HEAD =           0.0000         CONSTANT HEAD '
               '=           0.0000\n',
               '-     HEAD DEP BOUNDS =           0.0000       HEAD DEP BOUNDS '
               '=           0.0000\n',
               '-      STREAM LEAKAGE =    15971723.0000        STREAM LEAKAGE '
               '=           0.4665\n',
               '-\n',
               '-            TOTAL IN =    26131584.0000              TOTAL IN '
               '=           0.4670\n',
               '-\n',
               '-          OUT:                                     OUT:\n',
               '-          ----                                     ----\n',
               '-             STORAGE =     8805821.0000               STORAGE '
               '=           0.2088\n',
               '-       CONSTANT HEAD =           0.0000         CONSTANT HEAD '
               '=           0.0000\n',
               '-     HEAD DEP BOUNDS =    17325720.0000       HEAD DEP BOUNDS '
               '=           0.2581\n',
               '-      STREAM LEAKAGE =           0.0000        STREAM LEAKAGE '
               '=           0.0000\n',
               '-\n',
               '-           TOTAL OUT =    26131540.0000             TOTAL OUT '
               '=           0.4669\n',
               '-\n',
               '-            IN - OUT =          44.0000              IN - OUT '
               '=       1.1319E-04\n',
               '-\n',
               '- PERCENT DISCREPANCY =           0.00     PERCENT DISCREPANCY '
               '=           0.02\n',
               '-\n',
               '-\n',
               '-\n',
               '-\n',
               '-\n',
               '-\n',
               '-         TIME SUMMARY AT END OF TIME STEP   30 IN STRESS '
               'PERIOD   17\n',
               '-                    SECONDS     MINUTES      HOURS       '
               'DAYS        YEARS\n',
               '-                    '
               '-----------------------------------------------------------\n',
               '-   TIME STEP LENGTH 2.49961E+05  4166.0      69.434      '
               '2.8931     7.92080E-03\n',
               '- STRESS PERIOD TIME 2.59200E+06  43200.      720.00      '
               '30.000     8.21355E-02\n',
               '-         TOTAL TIME 4.40640E+07 7.34400E+05  12240.      '
               '510.00      1.3963    \n',
               '-1\n',
               '-1\n',
               '-                            STRESS PERIOD NO.   18, LENGTH '
               '=   2592000.    \n',
               '-                            '
               '-----------------------------------------------\n',
               '-\n',
               '-                              NUMBER OF TIME STEPS =    30\n',
               '-\n',
               '-                               MULTIPLIER FOR DELT =     '
               '1.100\n',
               '-\n',
               '-                            INITIAL TIME STEP SIZE =   '
               '15757.40    \n',
               '-\n',
               '- REUSING NON-PARAMETER GHB CELLS FROM LAST STRESS PERIOD\n',
               '-\n',
               '-      7 GHB CELLS\n',
               '- \n',
               '- SOLVING FOR HEAD \n',
               '-\n',
               '- NO OUTPUT CONTROL FOR STRESS PERIOD   18   TIME STEP    1\n',
               '- \n',
               '- SOLVING FOR HEAD \n',
               '-\n',
               '- NO OUTPUT CONTROL FOR STRESS PERIOD   18   TIME STEP    2\n',
               '- \n',
               '- SOLVING FOR HEAD \n',
               '-\n',
               '- NO OUTPUT CONTROL FOR STRESS PERIOD   18   TIME STEP    3\n',
               '- \n',
               '- SOLVING FOR HEAD \n',
               '-\n',
               '- NO OUTPUT CONTROL FOR STRESS PERIOD   18   TIME STEP    4\n',
               '- \n',
               '- SOLVING FOR HEAD \n',
               '-\n',
               '- NO OUTPUT CONTROL FOR STRESS PERIOD   18   TIME STEP    5\n',
               '- \n',
               '- SOLVING FOR HEAD \n',
               '-\n',
               '- NO OUTPUT CONTROL FOR STRESS PERIOD   18   TIME STEP    6\n',
               '- \n',
               '- SOLVING FOR HEAD \n',
               '-\n',
               '- NO OUTPUT CONTROL FOR STRESS PERIOD   18   TIME STEP    7\n',
               '- \n',
               '- SOLVING FOR HEAD \n',
               '-\n',
               '- NO OUTPUT CONTROL FOR STRESS PERIOD   18   TIME STEP    8\n',
               '- \n',
               '- SOLVING FOR HEAD \n',
               '-\n',
               '- NO OUTPUT CONTROL FOR STRESS PERIOD   18   TIME STEP    9\n',
               '- \n',
               '- SOLVING FOR HEAD \n',
               '-\n',
               '- NO OUTPUT CONTROL FOR STRESS PERIOD   18   TIME STEP   10\n',
               '- \n',
               '- SOLVING FOR HEAD \n',
               '-\n',
               '- NO OUTPUT CONTROL FOR STRESS PERIOD   18   TIME STEP   11\n',
               '- \n',
               '- SOLVING FOR HEAD \n',
               '-\n',
               '- NO OUTPUT CONTROL FOR STRESS PERIOD   18   TIME STEP   12\n',
               '- \n',
               '- SOLVING FOR HEAD \n',
               '-\n',
               '- NO OUTPUT CONTROL FOR STRESS PERIOD   18   TIME STEP   13\n',
               '- \n',
               '- SOLVING FOR HEAD \n',
               '-\n',
               '- NO OUTPUT CONTROL FOR STRESS PERIOD   18   TIME STEP   14\n',
               '- \n',
               '- SOLVING FOR HEAD \n',
               '-\n',
               '- NO OUTPUT CONTROL FOR STRESS PERIOD   18   TIME STEP   15\n',
               '- \n',
               '- SOLVING FOR HEAD \n',
               '-\n',
               '- NO OUTPUT CONTROL FOR STRESS PERIOD   18   TIME STEP   16\n',
               '- \n',
               '- SOLVING FOR HEAD \n',
               '-\n',
               '- NO OUTPUT CONTROL FOR STRESS PERIOD   18   TIME STEP   17\n',
               '- \n',
               '- SOLVING FOR HEAD \n',
               '-\n',
               '- NO OUTPUT CONTROL FOR STRESS PERIOD   18   TIME STEP   18\n',
               '- \n',
               '- SOLVING FOR HEAD \n',
               '-\n',
               '- NO OUTPUT CONTROL FOR STRESS PERIOD   18   TIME STEP   19\n',
               '- \n',
               '- SOLVING FOR HEAD \n',
               '-\n',
               '- NO OUTPUT CONTROL FOR STRESS PERIOD   18   TIME STEP   20\n',
               '- \n',
               '- SOLVING FOR HEAD \n',
               '-\n',
               '- NO OUTPUT CONTROL FOR STRESS PERIOD   18   TIME STEP   21\n',
               '- \n',
               '- SOLVING FOR HEAD \n',
               '-\n',
               '- NO OUTPUT CONTROL FOR STRESS PERIOD   18   TIME STEP   22\n',
               '- \n',
               '- SOLVING FOR HEAD \n',
               '-\n',
               '- NO OUTPUT CONTROL FOR STRESS PERIOD   18   TIME STEP   23\n',
               '- \n',
               '- SOLVING FOR HEAD \n',
               '-\n',
               '- NO OUTPUT CONTROL FOR STRESS PERIOD   18   TIME STEP   24\n',
               '- \n',
               '- SOLVING FOR HEAD \n',
               '-\n',
               '- NO OUTPUT CONTROL FOR STRESS PERIOD   18   TIME STEP   25\n',
               '- \n',
               '- SOLVING FOR HEAD \n',
               '-\n',
               '- NO OUTPUT CONTROL FOR STRESS PERIOD   18   TIME STEP   26\n',
               '- \n',
               '- SOLVING FOR HEAD \n',
               '-\n',
               '- NO OUTPUT CONTROL FOR STRESS PERIOD   18   TIME STEP   27\n',
               '- \n',
               '- SOLVING FOR HEAD \n',
               '-\n',
               '- NO OUTPUT CONTROL FOR STRESS PERIOD   18   TIME STEP   28\n',
               '- \n',
               '- SOLVING FOR HEAD \n',
               '-\n',
               '- NO OUTPUT CONTROL FOR STRESS PERIOD   18   TIME STEP   29\n',
               '- \n',
               '- SOLVING FOR HEAD \n',
               '-\n',
               '- NO OUTPUT CONTROL FOR STRESS PERIOD   18   TIME STEP   30\n',
               '-\n',
               '-\n',
               '-\n',
               '- STREAM LISTING     PERIOD     18   STEP       30\n',
               '-\n',
               '- LAYER ROW COL. STREAM  RCH.   FLOW INTO    STREAM     FLOW '
               'OUT OF   OVRLND.    DIRECT     STREAM      STREAM      '
               'STREAM     STREAM  STREAMBED   FLOW TO   CHNG. UNSAT. \n',
               '-                SEG.NO.  NO.   STRM. RCH.    LOSS       STRM. '
               'RCH.   RUNOFF     PRECIP       ET         HEAD        '
               'DEPTH      WIDTH  CONDCTNC.   WAT. TAB.\n',
               '-\n',
               '-   1    4    1     1     1    4.0470E+01  9.9845E-03   '
               '4.0460E+01  0.000E+00  0.000E+00  0.000E+00  1.44347E+02  '
               '4.497E+00  9.986E+00  2.000E-03  1.022E-02 -2.322E-04\n',
               '-   1    4    2     1     2    4.0460E+01  9.9823E-03   '
               '4.0450E+01  0.000E+00  0.000E+00  0.000E+00  1.44046E+02  '
               '4.496E+00  9.984E+00  1.999E-03  1.021E-02 -2.311E-04\n',
               '-   1    4    3     1     3    4.0450E+01  9.9801E-03   '
               '4.0440E+01  0.000E+00  0.000E+00  0.000E+00  1.43746E+02  '
               '4.496E+00  9.983E+00  1.999E-03  1.021E-02 -2.299E-04\n',
               '-   1    4    4     1     4    4.0440E+01  9.9779E-03   '
               '4.0430E+01  0.000E+00  0.000E+00  0.000E+00  1.43445E+02  '
               '4.495E+00  9.981E+00  1.999E-03  1.021E-02 -2.286E-04\n',
               '-   1    4    5     1     5    4.0430E+01  9.9757E-03   '
               '4.0420E+01  0.000E+00  0.000E+00  0.000E+00  1.43145E+02  '
               '4.495E+00  9.979E+00  1.999E-03  1.020E-02 -2.273E-04\n',
               '-   1    4    6     1     6    4.0420E+01  9.9735E-03   '
               '4.0410E+01  0.000E+00  0.000E+00  0.000E+00  1.42844E+02  '
               '4.494E+00  9.978E+00  1.998E-03  1.020E-02 -2.260E-04\n',
               '-   1    4    7     1     7    4.0410E+01  9.9713E-03   '
               '4.0400E+01  0.000E+00  0.000E+00  0.000E+00  1.42544E+02  '
               '4.494E+00  9.976E+00  1.998E-03  1.020E-02 -2.246E-04\n',
               '-   1    4    8     1     8    4.0400E+01  9.9691E-03   '
               '4.0390E+01  0.000E+00  0.000E+00  0.000E+00  1.42244E+02  '
               '4.494E+00  9.974E+00  1.998E-03  1.019E-02 -2.241E-04\n',
               '-   1    4    9     1     9    4.0390E+01  9.9669E-03   '
               '4.0380E+01  0.000E+00  0.000E+00  0.000E+00  1.41943E+02  '
               '4.493E+00  9.972E+00  1.998E-03  1.019E-02 -2.237E-04\n',
               '-   1    4   10     1    10    4.0380E+01  9.9647E-03   '
               '4.0370E+01  0.000E+00  0.000E+00  0.000E+00  1.41643E+02  '
               '4.493E+00  9.971E+00  1.997E-03  1.019E-02 -2.232E-04\n',
               '-   1    4   11     1    11    4.0370E+01  9.9625E-03   '
               '4.0360E+01  0.000E+00  0.000E+00  0.000E+00  1.41342E+02  '
               '4.492E+00  9.969E+00  1.997E-03  1.019E-02 -2.227E-04\n',
               '-   1    4   12     1    12    4.0360E+01  9.9603E-03   '
               '4.0350E+01  0.000E+00  0.000E+00  0.000E+00  1.41042E+02  '
               '4.492E+00  9.967E+00  1.997E-03  1.018E-02 -2.221E-04\n',
               '-   1    4   13     1    13    4.0350E+01  9.9581E-03   '
               '4.0340E+01  0.000E+00  0.000E+00  0.000E+00  1.40741E+02  '
               '4.491E+00  9.966E+00  1.996E-03  1.018E-02 -2.214E-04\n',
               '-   1    4   14     1    14    4.0340E+01  9.9559E-03   '
               '4.0330E+01  0.000E+00  0.000E+00  0.000E+00  1.40441E+02  '
               '4.491E+00  9.964E+00  1.996E-03  1.018E-02 -2.207E-04\n',
               '-   1    4   15     1    15    4.0330E+01  9.9537E-03   '
               '4.0320E+01  0.000E+00  0.000E+00  0.000E+00  1.40141E+02  '
               '4.491E+00  9.962E+00  1.996E-03  1.017E-02 -2.200E-04\n',
               '-   1    4   16     1    16    4.0320E+01  9.9515E-03   '
               '4.0310E+01  0.000E+00  0.000E+00  0.000E+00  1.39840E+02  '
               '4.490E+00  9.960E+00  1.996E-03  1.017E-02 -2.191E-04\n',
               '-   1    4   17     1    17    4.0310E+01  9.9493E-03   '
               '4.0300E+01  0.000E+00  0.000E+00  0.000E+00  1.39540E+02  '
               '4.490E+00  9.959E+00  1.995E-03  1.017E-02 -2.183E-04\n',
               '-   1    4   18     1    18    4.0300E+01  9.9472E-03   '
               '4.0290E+01  0.000E+00  0.000E+00  0.000E+00  1.39239E+02  '
               '4.489E+00  9.957E+00  1.995E-03  1.016E-02 -2.175E-04\n',
               '-   1    4   19     1    19    4.0290E+01  9.9450E-03   '
               '4.0280E+01  0.000E+00  0.000E+00  0.000E+00  1.38939E+02  '
               '4.489E+00  9.955E+00  1.995E-03  1.016E-02 -2.166E-04\n',
               '-   1    4   20     1    20    4.0280E+01  9.9428E-03   '
               '4.0271E+01  0.000E+00  0.000E+00  0.000E+00  1.38638E+02  '
               '4.488E+00  9.954E+00  1.995E-03  1.016E-02 -2.158E-04\n',
               '-   1    4   21     1    21    4.0271E+01  9.9406E-03   '
               '4.0261E+01  0.000E+00  0.000E+00  0.000E+00  1.38338E+02  '
               '4.488E+00  9.952E+00  1.994E-03  1.016E-02 -2.148E-04\n',
               '-   1    4   22     1    22    4.0261E+01  9.9384E-03   '
               '4.0251E+01  0.000E+00  0.000E+00  0.000E+00  1.38038E+02  '
               '4.488E+00  9.950E+00  1.994E-03  1.015E-02 -2.139E-04\n',
               '-   1    4   23     1    23    4.0251E+01  9.9362E-03   '
               '4.0241E+01  0.000E+00  0.000E+00  0.000E+00  1.37737E+02  '
               '4.487E+00  9.948E+00  1.994E-03  1.015E-02 -2.128E-04\n',
               '-   1    4   24     1    24    4.0241E+01  9.9340E-03   '
               '4.0231E+01  0.000E+00  0.000E+00  0.000E+00  1.37437E+02  '
               '4.487E+00  9.947E+00  1.994E-03  1.015E-02 -2.117E-04\n',
               '-   1    4   25     1    25    4.0231E+01  9.9318E-03   '
               '4.0221E+01  0.000E+00  0.000E+00  0.000E+00  1.37136E+02  '
               '4.486E+00  9.945E+00  1.993E-03  1.014E-02 -2.105E-04\n',
               '-   1    4   26     1    26    4.0221E+01  9.9296E-03   '
               '4.0211E+01  0.000E+00  0.000E+00  0.000E+00  1.36836E+02  '
               '4.486E+00  9.943E+00  1.993E-03  1.014E-02 -2.093E-04\n',
               '-   1    4   27     1    27    4.0211E+01  9.9274E-03   '
               '4.0201E+01  0.000E+00  0.000E+00  0.000E+00  1.36535E+02  '
               '4.485E+00  9.942E+00  1.993E-03  1.014E-02 -2.080E-04\n',
               '-   1    4   28     1    28    4.0201E+01  9.9252E-03   '
               '4.0191E+01  0.000E+00  0.000E+00  0.000E+00  1.36235E+02  '
               '4.485E+00  9.940E+00  1.992E-03  1.013E-02 -2.067E-04\n',
               '-   1    4   29     1    29    4.0191E+01  9.9231E-03   '
               '4.0181E+01  0.000E+00  0.000E+00  0.000E+00  1.35935E+02  '
               '4.485E+00  9.938E+00  1.992E-03  1.013E-02 -2.053E-04\n',
               '-   1    4   30     1    30    4.0181E+01  9.9209E-03   '
               '4.0171E+01  0.000E+00  0.000E+00  0.000E+00  1.35634E+02  '
               '4.484E+00  9.936E+00  1.992E-03  1.012E-02 -2.039E-04\n',
               '-   1    4   31     1    31    4.0171E+01  9.9187E-03   '
               '4.0161E+01  0.000E+00  0.000E+00  0.000E+00  1.35334E+02  '
               '4.484E+00  9.935E+00  1.992E-03  1.012E-02 -2.025E-04\n',
               '-   1    4   32     1    32    4.0161E+01  9.9165E-03   '
               '4.0151E+01  0.000E+00  0.000E+00  0.000E+00  1.35033E+02  '
               '4.483E+00  9.933E+00  1.991E-03  1.012E-02 -2.010E-04\n',
               '-   1    4   33     1    33    4.0151E+01  9.9143E-03   '
               '4.0141E+01  0.000E+00  0.000E+00  0.000E+00  1.34733E+02  '
               '4.483E+00  9.931E+00  1.991E-03  1.011E-02 -1.994E-04\n',
               '-   1    4   34     1    34    4.0141E+01  9.9121E-03   '
               '4.0132E+01  0.000E+00  0.000E+00  0.000E+00  1.34432E+02  '
               '4.482E+00  9.930E+00  1.991E-03  1.011E-02 -1.977E-04\n',
               '-   1    4   35     1    35    4.0132E+01  9.9099E-03   '
               '4.0122E+01  0.000E+00  0.000E+00  0.000E+00  1.34132E+02  '
               '4.482E+00  9.928E+00  1.991E-03  1.011E-02 -1.960E-04\n',
               '-   1    4   36     1    36    4.0122E+01  9.9078E-03   '
               '4.0112E+01  0.000E+00  0.000E+00  0.000E+00  1.33832E+02  '
               '4.482E+00  9.926E+00  1.990E-03  1.010E-02 -1.943E-04\n',
               '-   1    4   37     1    37    4.0112E+01  9.9056E-03   '
               '4.0102E+01  0.000E+00  0.000E+00  0.000E+00  1.33531E+02  '
               '4.481E+00  9.924E+00  1.990E-03  1.010E-02 -1.925E-04\n',
               '-   1    4   38     1    38    4.0102E+01  9.9034E-03   '
               '4.0092E+01  0.000E+00  0.000E+00  0.000E+00  1.33231E+02  '
               '4.481E+00  9.923E+00  1.990E-03  1.009E-02 -1.906E-04\n',
               '-   1    4   39     1    39    4.0092E+01  9.9012E-03   '
               '4.0082E+01  0.000E+00  0.000E+00  0.000E+00  1.32930E+02  '
               '4.480E+00  9.921E+00  1.990E-03  1.009E-02 -1.887E-04\n',
               '-   1    4   40     1    40    4.0082E+01  9.8990E-03   '
               '4.0072E+01  0.000E+00  0.000E+00  0.000E+00  1.32630E+02  '
               '4.480E+00  9.919E+00  1.989E-03  1.009E-02 -1.868E-04\n',
               '-   1    4   41     1    41    4.0072E+01  9.8968E-03   '
               '4.0062E+01  0.000E+00  0.000E+00  0.000E+00  1.32329E+02  '
               '4.479E+00  9.918E+00  1.989E-03  1.008E-02 -1.848E-04\n',
               '-   1    4   42     1    42    4.0062E+01  9.8946E-03   '
               '4.0052E+01  0.000E+00  0.000E+00  0.000E+00  1.32029E+02  '
               '4.479E+00  9.916E+00  1.989E-03  1.008E-02 -1.828E-04\n',
               '-   1    4   43     1    43    4.0052E+01  9.8925E-03   '
               '4.0042E+01  0.000E+00  0.000E+00  0.000E+00  1.31729E+02  '
               '4.479E+00  9.914E+00  1.988E-03  1.007E-02 -1.807E-04\n',
               '-   1    4   44     1    44    4.0042E+01  9.8903E-03   '
               '4.0033E+01  0.000E+00  0.000E+00  0.000E+00  1.31428E+02  '
               '4.478E+00  9.912E+00  1.988E-03  1.007E-02 -1.786E-04\n',
               '-   1    4   45     1    45    4.0033E+01  9.8881E-03   '
               '4.0023E+01  0.000E+00  0.000E+00  0.000E+00  1.31128E+02  '
               '4.478E+00  9.911E+00  1.988E-03  1.006E-02 -1.764E-04\n',
               '-   1    4   46     1    46    4.0023E+01  9.8859E-03   '
               '4.0013E+01  0.000E+00  0.000E+00  0.000E+00  1.30827E+02  '
               '4.477E+00  9.909E+00  1.988E-03  1.006E-02 -1.742E-04\n',
               '-   1    4   47     1    47    4.0013E+01  9.8837E-03   '
               '4.0003E+01  0.000E+00  0.000E+00  0.000E+00  1.30527E+02  '
               '4.477E+00  9.907E+00  1.987E-03  1.006E-02 -1.720E-04\n',
               '-   1    4   48     1    48    4.0003E+01  9.8815E-03   '
               '3.9993E+01  0.000E+00  0.000E+00  0.000E+00  1.30226E+02  '
               '4.476E+00  9.906E+00  1.987E-03  1.005E-02 -1.698E-04\n',
               '-   1    4   49     1    49    3.9993E+01  9.8794E-03   '
               '3.9983E+01  0.000E+00  0.000E+00  0.000E+00  1.29926E+02  '
               '4.476E+00  9.904E+00  1.987E-03  1.005E-02 -1.675E-04\n',
               '-   1    4   50     1    50    3.9983E+01  9.8772E-03   '
               '3.9973E+01  0.000E+00  0.000E+00  0.000E+00  1.29626E+02  '
               '4.476E+00  9.902E+00  1.987E-03  1.004E-02 -1.652E-04\n',
               '-   1    4   51     1    51    3.9973E+01  9.8750E-03   '
               '3.9963E+01  0.000E+00  0.000E+00  0.000E+00  1.29325E+02  '
               '4.475E+00  9.901E+00  1.986E-03  1.004E-02 -1.630E-04\n',
               '-   1    4   52     1    52    3.9963E+01  9.8728E-03   '
               '3.9953E+01  0.000E+00  0.000E+00  0.000E+00  1.29025E+02  '
               '4.475E+00  9.899E+00  1.986E-03  1.003E-02 -1.607E-04\n',
               '-   1    4   53     1    53    3.9953E+01  9.8706E-03   '
               '3.9944E+01  0.000E+00  0.000E+00  0.000E+00  1.28724E+02  '
               '4.474E+00  9.897E+00  1.986E-03  1.003E-02 -1.584E-04\n',
               '-   1    4   54     1    54    3.9944E+01  9.8685E-03   '
               '3.9934E+01  0.000E+00  0.000E+00  0.000E+00  1.28424E+02  '
               '4.474E+00  9.895E+00  1.986E-03  1.002E-02 -1.561E-04\n',
               '-   1    4   55     1    55    3.9934E+01  9.8663E-03   '
               '3.9924E+01  0.000E+00  0.000E+00  0.000E+00  1.28123E+02  '
               '4.473E+00  9.894E+00  1.985E-03  1.002E-02 -1.538E-04\n',
               '-   1    4   56     1    56    3.9924E+01  9.8641E-03   '
               '3.9914E+01  0.000E+00  0.000E+00  0.000E+00  1.27823E+02  '
               '4.473E+00  9.892E+00  1.985E-03  1.002E-02 -1.516E-04\n',
               '-   1    4   57     1    57    3.9914E+01  9.8619E-03   '
               '3.9904E+01  0.000E+00  0.000E+00  0.000E+00  1.27523E+02  '
               '4.473E+00  9.890E+00  1.985E-03  1.001E-02 -1.493E-04\n',
               '-   1    4   58     1    58    3.9904E+01  9.8598E-03   '
               '3.9894E+01  0.000E+00  0.000E+00  0.000E+00  1.27222E+02  '
               '4.472E+00  9.889E+00  1.984E-03  1.001E-02 -1.471E-04\n',
               '-   1    4   59     1    59    3.9894E+01  9.8576E-03   '
               '3.9884E+01  0.000E+00  0.000E+00  0.000E+00  1.26922E+02  '
               '4.472E+00  9.887E+00  1.984E-03  1.000E-02 -1.450E-04\n',
               '-   1    4   60     1    60    3.9884E+01  9.8554E-03   '
               '3.9875E+01  0.000E+00  0.000E+00  0.000E+00  1.26621E+02  '
               '4.471E+00  9.885E+00  1.984E-03  9.998E-03 -1.428E-04\n',
               '-   1    4   61     1    61    3.9875E+01  9.8532E-03   '
               '3.9865E+01  0.000E+00  0.000E+00  0.000E+00  1.26321E+02  '
               '4.471E+00  9.883E+00  1.984E-03  9.994E-03 -1.408E-04\n',
               '-   1    4   62     1    62    3.9865E+01  9.8510E-03   '
               '3.9855E+01  0.000E+00  0.000E+00  0.000E+00  1.26020E+02  '
               '4.470E+00  9.882E+00  1.983E-03  9.990E-03 -1.387E-04\n',
               '-   1    4   63     1    63    3.9855E+01  9.8489E-03   '
               '3.9845E+01  0.000E+00  0.000E+00  0.000E+00  1.25720E+02  '
               '4.470E+00  9.880E+00  1.983E-03  9.986E-03 -1.368E-04\n',
               '-   1    4   64     1    64    3.9845E+01  9.8467E-03   '
               '3.9835E+01  0.000E+00  0.000E+00  0.000E+00  1.25420E+02  '
               '4.470E+00  9.878E+00  1.983E-03  9.982E-03 -1.349E-04\n',
               '-   1    4   65     1    65    3.9835E+01  9.8445E-03   '
               '3.9825E+01  0.000E+00  0.000E+00  0.000E+00  1.25119E+02  '
               '4.469E+00  9.877E+00  1.983E-03  9.978E-03 -1.331E-04\n',
               '-   1    4   66     1    66    3.9825E+01  9.8423E-03   '
               '3.9816E+01  0.000E+00  0.000E+00  0.000E+00  1.24819E+02  '
               '4.469E+00  9.875E+00  1.982E-03  9.974E-03 -1.314E-04\n',
               '-   1    4   67     1    67    3.9816E+01  9.8402E-03   '
               '3.9806E+01  0.000E+00  0.000E+00  0.000E+00  1.24518E+02  '
               '4.468E+00  9.873E+00  1.982E-03  9.970E-03 -1.298E-04\n',
               '-   1    4   68     1    68    3.9806E+01  9.8380E-03   '
               '3.9796E+01  0.000E+00  0.000E+00  0.000E+00  1.24218E+02  '
               '4.468E+00  9.871E+00  1.982E-03  9.966E-03 -1.283E-04\n',
               '-   1    4   69     1    69    3.9796E+01  9.8358E-03   '
               '3.9786E+01  0.000E+00  0.000E+00  0.000E+00  1.23917E+02  '
               '4.467E+00  9.870E+00  1.982E-03  9.963E-03 -1.269E-04\n',
               '-   1    4   70     1    70    3.9786E+01  9.8336E-03   '
               '3.9776E+01  0.000E+00  0.000E+00  0.000E+00  1.23617E+02  '
               '4.467E+00  9.868E+00  1.981E-03  9.959E-03 -1.256E-04\n',
               '-   1    4   71     1    71    3.9776E+01  9.8315E-03   '
               '3.9766E+01  0.000E+00  0.000E+00  0.000E+00  1.23317E+02  '
               '4.467E+00  9.866E+00  1.981E-03  9.956E-03 -1.244E-04\n',
               '-   1    4   72     1    72    3.9766E+01  9.8293E-03   '
               '3.9756E+01  0.000E+00  0.000E+00  0.000E+00  1.23016E+02  '
               '4.466E+00  9.865E+00  1.981E-03  9.953E-03 -1.234E-04\n',
               '-   1    4   73     1    73    3.9756E+01  9.8271E-03   '
               '3.9747E+01  0.000E+00  0.000E+00  0.000E+00  1.22716E+02  '
               '4.466E+00  9.863E+00  1.980E-03  9.950E-03 -1.224E-04\n',
               '-   1    4   74     1    74    3.9747E+01  9.8249E-03   '
               '3.9737E+01  0.000E+00  0.000E+00  0.000E+00  1.22415E+02  '
               '4.465E+00  9.861E+00  1.980E-03  9.947E-03 -1.216E-04\n',
               '-   1    4   75     1    75    3.9737E+01  9.8228E-03   '
               '3.9727E+01  0.000E+00  0.000E+00  0.000E+00  1.22115E+02  '
               '4.465E+00  9.860E+00  1.980E-03  9.944E-03 -1.209E-04\n',
               '-   1    4   76     1    76    3.9727E+01  9.8206E-03   '
               '3.9717E+01  0.000E+00  0.000E+00  0.000E+00  1.21814E+02  '
               '4.464E+00  9.858E+00  1.980E-03  9.941E-03 -1.203E-04\n',
               '-   1    4   77     1    77    3.9717E+01  9.8184E-03   '
               '3.9707E+01  0.000E+00  0.000E+00  0.000E+00  1.21514E+02  '
               '4.464E+00  9.856E+00  1.979E-03  9.938E-03 -1.198E-04\n',
               '-   1    4   78     1    78    3.9707E+01  9.8163E-03   '
               '3.9698E+01  0.000E+00  0.000E+00  0.000E+00  1.21214E+02  '
               '4.464E+00  9.854E+00  1.979E-03  9.936E-03 -1.194E-04\n',
               '-   1    4   79     1    79    3.9698E+01  9.8141E-03   '
               '3.9688E+01  0.000E+00  0.000E+00  0.000E+00  1.20913E+02  '
               '4.463E+00  9.853E+00  1.979E-03  9.933E-03 -1.192E-04\n',
               '-   1    4   80     1    80    3.9688E+01  9.8119E-03   '
               '3.9678E+01  0.000E+00  0.000E+00  0.000E+00  1.20613E+02  '
               '4.463E+00  9.851E+00  1.979E-03  9.931E-03 -1.190E-04\n',
               '-   1    4   81     1    81    3.9678E+01  9.8097E-03   '
               '3.9668E+01  0.000E+00  0.000E+00  0.000E+00  1.20312E+02  '
               '4.462E+00  9.849E+00  1.978E-03  9.929E-03 -1.188E-04\n',
               '-   1    4   82     1    82    3.9668E+01  9.8076E-03   '
               '3.9658E+01  0.000E+00  0.000E+00  0.000E+00  1.20012E+02  '
               '4.462E+00  9.848E+00  1.978E-03  9.926E-03 -1.187E-04\n',
               '-   1    4   83     1    83    3.9658E+01  9.8054E-03   '
               '3.9649E+01  0.000E+00  0.000E+00  0.000E+00  1.19711E+02  '
               '4.461E+00  9.846E+00  1.978E-03  9.924E-03 -1.187E-04\n',
               '-   1    4   84     1    84    3.9649E+01  9.8032E-03   '
               '3.9639E+01  0.000E+00  0.000E+00  0.000E+00  1.19411E+02  '
               '4.461E+00  9.844E+00  1.977E-03  9.922E-03 -1.185E-04\n',
               '-   1    4   85     1    85    3.9639E+01  9.8011E-03   '
               '3.9629E+01  0.000E+00  0.000E+00  0.000E+00  1.19111E+02  '
               '4.461E+00  9.842E+00  1.977E-03  9.920E-03 -1.184E-04\n',
               '-   1    4   86     1    86    3.9629E+01  9.7989E-03   '
               '3.9619E+01  0.000E+00  0.000E+00  0.000E+00  1.18810E+02  '
               '4.460E+00  9.841E+00  1.977E-03  9.917E-03 -1.183E-04\n',
               '-   1    4   87     1    87    3.9619E+01  9.7967E-03   '
               '3.9609E+01  0.000E+00  0.000E+00  0.000E+00  1.18510E+02  '
               '4.460E+00  9.839E+00  1.977E-03  9.915E-03 -1.179E-04\n',
               '-   1    4   88     1    88    3.9609E+01  9.7946E-03   '
               '3.9600E+01  0.000E+00  0.000E+00  0.000E+00  1.18209E+02  '
               '4.459E+00  9.837E+00  1.976E-03  9.912E-03 -1.171E-04\n',
               '-   1    4   89     1    89    3.9600E+01  9.7924E-03   '
               '3.9590E+01  0.000E+00  0.000E+00  0.000E+00  1.17909E+02  '
               '4.459E+00  9.836E+00  1.976E-03  9.909E-03 -1.167E-04\n',
               '-   1    4   90     1    90    3.9590E+01  9.7902E-03   '
               '3.9580E+01  0.000E+00  0.000E+00  0.000E+00  1.17608E+02  '
               '4.458E+00  9.834E+00  1.976E-03  9.907E-03 -1.172E-04\n',
               '-   1    4   91     1    91    3.9580E+01  9.7881E-03   '
               '3.9570E+01  0.000E+00  0.000E+00  0.000E+00  1.17308E+02  '
               '4.458E+00  9.832E+00  1.976E-03  9.905E-03 -1.167E-04\n',
               '-   1    4   92     1    92    3.9570E+01  9.7859E-03   '
               '3.9560E+01  0.000E+00  0.000E+00  0.000E+00  1.17008E+02  '
               '4.458E+00  9.831E+00  1.975E-03  9.900E-03 -1.143E-04\n',
               '-   1    4   93     1    93    3.9560E+01  9.7837E-03   '
               '3.9551E+01  0.000E+00  0.000E+00  0.000E+00  1.16707E+02  '
               '4.457E+00  9.829E+00  1.975E-03  9.754E-03  2.946E-05\n',
               '-   1    4   94     1    94    3.9551E+01  9.7816E-03   '
               '3.9541E+01  0.000E+00  0.000E+00  0.000E+00  1.16407E+02  '
               '4.457E+00  9.827E+00  1.975E-03  9.430E-03  3.519E-04\n',
               '-   1    4   95     1    95    3.9541E+01  9.7794E-03   '
               '3.9531E+01  0.000E+00  0.000E+00  0.000E+00  1.16106E+02  '
               '4.456E+00  9.825E+00  1.975E-03  9.087E-03  6.924E-04\n',
               '-   1    4   96     1    96    3.9531E+01  9.7772E-03   '
               '3.9521E+01  0.000E+00  0.000E+00  0.000E+00  1.15806E+02  '
               '4.456E+00  9.824E+00  1.974E-03  8.727E-03  1.051E-03\n',
               '-   1    4   97     1    97    3.9521E+01  9.7751E-03   '
               '3.9511E+01  0.000E+00  0.000E+00  0.000E+00  1.15505E+02  '
               '4.455E+00  9.822E+00  1.974E-03  8.679E-03  1.096E-03\n',
               '-   1    4   98     1    98    3.9511E+01  9.7729E-03   '
               '3.9502E+01  0.000E+00  0.000E+00  0.000E+00  1.15205E+02  '
               '4.455E+00  9.820E+00  1.974E-03  8.666E-03  1.106E-03\n',
               '-   1    4   99     1    99    3.9502E+01  9.7707E-03   '
               '3.9492E+01  0.000E+00  0.000E+00  0.000E+00  1.14905E+02  '
               '4.455E+00  9.819E+00  1.973E-03  8.653E-03  1.118E-03\n',
               '-   1    4  100     1   100    3.9492E+01  9.7686E-03   '
               '3.9482E+01  0.000E+00  0.000E+00  0.000E+00  1.14604E+02  '
               '4.454E+00  9.817E+00  1.973E-03  8.639E-03  1.130E-03\n',
               '-\n',
               '-\n',
               '-\n',
               '-1\n',
               '-  VOLUMETRIC BUDGET FOR UNSATURATED ZONE BENEATH STREAMS AT '
               'END OF TIME STEP    30 STRESS PERIOD  18\n',
               '-  '
               '------------------------------------------------------------------------------------------------\n',
               '-\n',
               '-    CUMULATIVE VOLUMES             L**3    RATES FOR THIS '
               'TIME STEP         L**3/T\n',
               '-    ------------------                     '
               '------------------------\n',
               '-\n',
               '-\n',
               '-          STREAM LOSS =     19287806.0000            STREAM '
               'LOSS =            0.9876\n',
               '-    CHANGE IN STORAGE =      1118778.8750      CHANGE IN '
               'STORAGE =       -9.1654E-03\n',
               '-       RECHARGE TO GW =     18172676.0000         RECHARGE TO '
               'GW =            0.9968\n',
               '-\n',
               '-             TOTAL IN =     19287806.0000               TOTAL '
               'IN =            0.9968\n',
               '-\n',
               '-            TOTAL OUT =     19291454.0000              TOTAL '
               'OUT =            0.9968\n',
               '-\n',
               '-             IN - OUT =        -3648.0000               IN - '
               'OUT =            0.0000\n',
               '-\n',
               '-  PERCENT DISCREPANCY =           -0.00      PERCENT '
               'DISCREPANCY =             0.00\n',
               '-\n',
               '-\n',
               '-\n',
               '-1\n',
               '-  VOLUMETRIC BUDGET FOR ENTIRE MODEL AT END OF TIME STEP   '
               '30, STRESS PERIOD  18\n',
               '-  '
               '------------------------------------------------------------------------------\n',
               '-\n',
               '-     CUMULATIVE VOLUMES      L**3       RATES FOR THIS TIME '
               'STEP      L**3/T\n',
               '-     ------------------                 '
               '------------------------\n',
               '-\n',
               '-           IN:                                      IN:\n',
               '-           ---                                      ---\n',
               '-             STORAGE =    10159985.0000               STORAGE '
               '=           0.0000\n',
               '-       CONSTANT HEAD =           0.0000         CONSTANT HEAD '
               '=           0.0000\n',
               '-     HEAD DEP BOUNDS =           0.0000       HEAD DEP BOUNDS '
               '=           0.0000\n',
               '-      STREAM LEAKAGE =    18172708.0000        STREAM LEAKAGE '
               '=           0.9968\n',
               '-\n',
               '-            TOTAL IN =    28332692.0000              TOTAL IN '
               '=           0.9968\n',
               '-\n',
               '-          OUT:                                     OUT:\n',
               '-          ----                                     ----\n',
               '-             STORAGE =    10308248.0000               STORAGE '
               '=           0.7174\n',
               '-       CONSTANT HEAD =           0.0000         CONSTANT HEAD '
               '=           0.0000\n',
               '-     HEAD DEP BOUNDS =    18024398.0000       HEAD DEP BOUNDS '
               '=           0.2794\n',
               '-      STREAM LEAKAGE =           0.0000        STREAM LEAKAGE '
               '=           0.0000\n',
               '-\n',
               '-           TOTAL OUT =    28332646.0000             TOTAL OUT '
               '=           0.9968\n',
               '-\n',
               '-            IN - OUT =          46.0000              IN - OUT '
               '=       1.0490E-05\n',
               '-\n',
               '- PERCENT DISCREPANCY =           0.00     PERCENT DISCREPANCY '
               '=           0.00\n',
               '-\n',
               '-\n',
               '-\n',
               '-\n',
               '-\n',
               '-\n',
               '-         TIME SUMMARY AT END OF TIME STEP   30 IN STRESS '
               'PERIOD   18\n',
               '-                    SECONDS     MINUTES      HOURS       '
               'DAYS        YEARS\n',
               '-                    '
               '-----------------------------------------------------------\n',
               '-   TIME STEP LENGTH 2.49961E+05  4166.0      69.434      '
               '2.8931     7.92080E-03\n',
               '- STRESS PERIOD TIME 2.59200E+06  43200.      720.00      '
               '30.000     8.21355E-02\n',
               '-         TOTAL TIME 4.66560E+07 7.77600E+05  12960.      '
               '540.00      1.4784    \n',
               '-1\n',
               '-1\n',
               '-                            STRESS PERIOD NO.   19, LENGTH '
               '=   2592000.    \n',
               '-                            '
               '-----------------------------------------------\n',
               '-\n',
               '-                              NUMBER OF TIME STEPS =    30\n',
               '-\n',
               '-                               MULTIPLIER FOR DELT =     '
               '1.100\n',
               '-\n',
               '-                            INITIAL TIME STEP SIZE =   '
               '15757.40    \n',
               '-\n',
               '- REUSING NON-PARAMETER GHB CELLS FROM LAST STRESS PERIOD\n',
               '-\n',
               '-      7 GHB CELLS\n',
               '- \n',
               '- SOLVING FOR HEAD \n',
               '-\n',
               '- NO OUTPUT CONTROL FOR STRESS PERIOD   19   TIME STEP    1\n',
               '- \n',
               '- SOLVING FOR HEAD \n',
               '-\n',
               '- NO OUTPUT CONTROL FOR STRESS PERIOD   19   TIME STEP    2\n',
               '- \n',
               '- SOLVING FOR HEAD \n',
               '-\n',
               '- NO OUTPUT CONTROL FOR STRESS PERIOD   19   TIME STEP    3\n',
               '- \n',
               '- SOLVING FOR HEAD \n',
               '-\n',
               '- NO OUTPUT CONTROL FOR STRESS PERIOD   19   TIME STEP    4\n',
               '- \n',
               '- SOLVING FOR HEAD \n',
               '-\n',
               '- NO OUTPUT CONTROL FOR STRESS PERIOD   19   TIME STEP    5\n',
               '- \n',
               '- SOLVING FOR HEAD \n',
               '-\n',
               '- NO OUTPUT CONTROL FOR STRESS PERIOD   19   TIME STEP    6\n',
               '- \n',
               '- SOLVING FOR HEAD \n',
               '-\n',
               '- NO OUTPUT CONTROL FOR STRESS PERIOD   19   TIME STEP    7\n',
               '- \n',
               '- SOLVING FOR HEAD \n',
               '-\n',
               '- NO OUTPUT CONTROL FOR STRESS PERIOD   19   TIME STEP    8\n',
               '- \n',
               '- SOLVING FOR HEAD \n',
               '-\n',
               '- NO OUTPUT CONTROL FOR STRESS PERIOD   19   TIME STEP    9\n',
               '- \n',
               '- SOLVING FOR HEAD \n',
               '-\n',
               '- NO OUTPUT CONTROL FOR STRESS PERIOD   19   TIME STEP   10\n',
               '- \n',
               '- SOLVING FOR HEAD \n',
               '-\n',
               '- NO OUTPUT CONTROL FOR STRESS PERIOD   19   TIME STEP   11\n',
               '- \n',
               '- SOLVING FOR HEAD \n',
               '-\n',
               '- NO OUTPUT CONTROL FOR STRESS PERIOD   19   TIME STEP   12\n',
               '- \n',
               '- SOLVING FOR HEAD \n',
               '-\n',
               '- NO OUTPUT CONTROL FOR STRESS PERIOD   19   TIME STEP   13\n',
               '- \n',
               '- SOLVING FOR HEAD \n',
               '-\n',
               '- NO OUTPUT CONTROL FOR STRESS PERIOD   19   TIME STEP   14\n',
               '- \n',
               '- SOLVING FOR HEAD \n',
               '-\n',
               '- NO OUTPUT CONTROL FOR STRESS PERIOD   19   TIME STEP   15\n',
               '- \n',
               '- SOLVING FOR HEAD \n',
               '-\n',
               '- NO OUTPUT CONTROL FOR STRESS PERIOD   19   TIME STEP   16\n',
               '- \n',
               '- SOLVING FOR HEAD \n',
               '-\n',
               '- NO OUTPUT CONTROL FOR STRESS PERIOD   19   TIME STEP   17\n',
               '- \n',
               '- SOLVING FOR HEAD \n',
               '-\n',
               '- NO OUTPUT CONTROL FOR STRESS PERIOD   19   TIME STEP   18\n',
               '- \n',
               '- SOLVING FOR HEAD \n',
               '-\n',
               '- NO OUTPUT CONTROL FOR STRESS PERIOD   19   TIME STEP   19\n',
               '- \n',
               '- SOLVING FOR HEAD \n',
               '-\n',
               '- NO OUTPUT CONTROL FOR STRESS PERIOD   19   TIME STEP   20\n',
               '- \n',
               '- SOLVING FOR HEAD \n',
               '-\n',
               '- NO OUTPUT CONTROL FOR STRESS PERIOD   19   TIME STEP   21\n',
               '- \n',
               '- SOLVING FOR HEAD \n',
               '-\n',
               '- NO OUTPUT CONTROL FOR STRESS PERIOD   19   TIME STEP   22\n',
               '- \n',
               '- SOLVING FOR HEAD \n',
               '-\n',
               '- NO OUTPUT CONTROL FOR STRESS PERIOD   19   TIME STEP   23\n',
               '- \n',
               '- SOLVING FOR HEAD \n',
               '-\n',
               '- NO OUTPUT CONTROL FOR STRESS PERIOD   19   TIME STEP   24\n',
               '- \n',
               '- SOLVING FOR HEAD \n',
               '-\n',
               '- NO OUTPUT CONTROL FOR STRESS PERIOD   19   TIME STEP   25\n',
               '- \n',
               '- SOLVING FOR HEAD \n',
               '-\n',
               '- NO OUTPUT CONTROL FOR STRESS PERIOD   19   TIME STEP   26\n',
               '- \n',
               '- SOLVING FOR HEAD \n',
               '-\n',
               '- NO OUTPUT CONTROL FOR STRESS PERIOD   19   TIME STEP   27\n',
               '- \n',
               '- SOLVING FOR HEAD \n',
               '-\n',
               '- NO OUTPUT CONTROL FOR STRESS PERIOD   19   TIME STEP   28\n',
               '- \n',
               '- SOLVING FOR HEAD \n',
               '-\n',
               '- NO OUTPUT CONTROL FOR STRESS PERIOD   19   TIME STEP   29\n',
               '- \n',
               '- SOLVING FOR HEAD \n',
               '-\n',
               '- NO OUTPUT CONTROL FOR STRESS PERIOD   19   TIME STEP   30\n',
               '-\n',
               '-\n',
               '-\n',
               '- STREAM LISTING     PERIOD     19   STEP       30\n',
               '-\n',
               '- LAYER ROW COL. STREAM  RCH.   FLOW INTO    STREAM     FLOW '
               'OUT OF   OVRLND.    DIRECT     STREAM      STREAM      '
               'STREAM     STREAM  STREAMBED   FLOW TO   CHNG. UNSAT. \n',
               '-                SEG.NO.  NO.   STRM. RCH.    LOSS       STRM. '
               'RCH.   RUNOFF     PRECIP       ET         HEAD        '
               'DEPTH      WIDTH  CONDCTNC.   WAT. TAB.\n',
               '-\n',
               '-   1    4    1     1     1    6.5560E+01  1.4315E-02   '
               '6.5545E+01  0.000E+00  0.000E+00  0.000E+00  1.45256E+02  '
               '5.406E+00  1.242E+01  2.425E-03  1.464E-02 -3.256E-04\n',
               '-   1    4    2     1     2    6.5545E+01  1.4313E-02   '
               '6.5531E+01  0.000E+00  0.000E+00  0.000E+00  1.44956E+02  '
               '5.406E+00  1.242E+01  2.425E-03  1.464E-02 -3.267E-04\n',
               '-   1    4    3     1     3    6.5531E+01  1.4311E-02   '
               '6.5517E+01  0.000E+00  0.000E+00  0.000E+00  1.44656E+02  '
               '5.406E+00  1.241E+01  2.424E-03  1.464E-02 -3.278E-04\n',
               '-   1    4    4     1     4    6.5517E+01  1.4308E-02   '
               '6.5502E+01  0.000E+00  0.000E+00  0.000E+00  1.44355E+02  '
               '5.405E+00  1.241E+01  2.424E-03  1.464E-02 -3.289E-04\n',
               '-   1    4    5     1     5    6.5502E+01  1.4306E-02   '
               '6.5488E+01  0.000E+00  0.000E+00  0.000E+00  1.44055E+02  '
               '5.405E+00  1.241E+01  2.424E-03  1.464E-02 -3.298E-04\n',
               '-   1    4    6     1     6    6.5488E+01  1.4304E-02   '
               '6.5474E+01  0.000E+00  0.000E+00  0.000E+00  1.43754E+02  '
               '5.404E+00  1.241E+01  2.424E-03  1.463E-02 -3.307E-04\n',
               '-   1    4    7     1     7    6.5474E+01  1.4301E-02   '
               '6.5459E+01  0.000E+00  0.000E+00  0.000E+00  1.43454E+02  '
               '5.404E+00  1.241E+01  2.424E-03  1.463E-02 -3.315E-04\n',
               '-   1    4    8     1     8    6.5459E+01  1.4299E-02   '
               '6.5445E+01  0.000E+00  0.000E+00  0.000E+00  1.43153E+02  '
               '5.403E+00  1.241E+01  2.423E-03  1.463E-02 -3.323E-04\n',
               '-   1    4    9     1     9    6.5445E+01  1.4297E-02   '
               '6.5431E+01  0.000E+00  0.000E+00  0.000E+00  1.42853E+02  '
               '5.403E+00  1.241E+01  2.423E-03  1.463E-02 -3.330E-04\n',
               '-   1    4   10     1    10    6.5431E+01  1.4294E-02   '
               '6.5417E+01  0.000E+00  0.000E+00  0.000E+00  1.42552E+02  '
               '5.402E+00  1.241E+01  2.423E-03  1.463E-02 -3.337E-04\n',
               '-   1    4   11     1    11    6.5417E+01  1.4292E-02   '
               '6.5402E+01  0.000E+00  0.000E+00  0.000E+00  1.42252E+02  '
               '5.402E+00  1.241E+01  2.423E-03  1.463E-02 -3.343E-04\n',
               '-   1    4   12     1    12    6.5402E+01  1.4290E-02   '
               '6.5388E+01  0.000E+00  0.000E+00  0.000E+00  1.41951E+02  '
               '5.401E+00  1.240E+01  2.423E-03  1.462E-02 -3.349E-04\n',
               '-   1    4   13     1    13    6.5388E+01  1.4287E-02   '
               '6.5374E+01  0.000E+00  0.000E+00  0.000E+00  1.41651E+02  '
               '5.401E+00  1.240E+01  2.422E-03  1.462E-02 -3.354E-04\n',
               '-   1    4   14     1    14    6.5374E+01  1.4285E-02   '
               '6.5359E+01  0.000E+00  0.000E+00  0.000E+00  1.41351E+02  '
               '5.401E+00  1.240E+01  2.422E-03  1.462E-02 -3.359E-04\n',
               '-   1    4   15     1    15    6.5359E+01  1.4283E-02   '
               '6.5345E+01  0.000E+00  0.000E+00  0.000E+00  1.41050E+02  '
               '5.400E+00  1.240E+01  2.422E-03  1.462E-02 -3.364E-04\n',
               '-   1    4   16     1    16    6.5345E+01  1.4280E-02   '
               '6.5331E+01  0.000E+00  0.000E+00  0.000E+00  1.40750E+02  '
               '5.400E+00  1.240E+01  2.422E-03  1.462E-02 -3.368E-04\n',
               '-   1    4   17     1    17    6.5331E+01  1.4278E-02   '
               '6.5317E+01  0.000E+00  0.000E+00  0.000E+00  1.40449E+02  '
               '5.399E+00  1.240E+01  2.422E-03  1.462E-02 -3.372E-04\n',
               '-   1    4   18     1    18    6.5317E+01  1.4276E-02   '
               '6.5302E+01  0.000E+00  0.000E+00  0.000E+00  1.40149E+02  '
               '5.399E+00  1.240E+01  2.421E-03  1.461E-02 -3.375E-04\n',
               '-   1    4   19     1    19    6.5302E+01  1.4273E-02   '
               '6.5288E+01  0.000E+00  0.000E+00  0.000E+00  1.39848E+02  '
               '5.398E+00  1.240E+01  2.421E-03  1.461E-02 -3.378E-04\n',
               '-   1    4   20     1    20    6.5288E+01  1.4271E-02   '
               '6.5274E+01  0.000E+00  0.000E+00  0.000E+00  1.39548E+02  '
               '5.398E+00  1.239E+01  2.421E-03  1.461E-02 -3.380E-04\n',
               '-   1    4   21     1    21    6.5274E+01  1.4269E-02   '
               '6.5260E+01  0.000E+00  0.000E+00  0.000E+00  1.39247E+02  '
               '5.397E+00  1.239E+01  2.421E-03  1.461E-02 -3.382E-04\n',
               '-   1    4   22     1    22    6.5260E+01  1.4266E-02   '
               '6.5245E+01  0.000E+00  0.000E+00  0.000E+00  1.38947E+02  '
               '5.397E+00  1.239E+01  2.420E-03  1.460E-02 -3.383E-04\n',
               '-   1    4   23     1    23    6.5245E+01  1.4264E-02   '
               '6.5231E+01  0.000E+00  0.000E+00  0.000E+00  1.38647E+02  '
               '5.397E+00  1.239E+01  2.420E-03  1.460E-02 -3.384E-04\n',
               '-   1    4   24     1    24    6.5231E+01  1.4262E-02   '
               '6.5217E+01  0.000E+00  0.000E+00  0.000E+00  1.38346E+02  '
               '5.396E+00  1.239E+01  2.420E-03  1.460E-02 -3.384E-04\n',
               '-   1    4   25     1    25    6.5217E+01  1.4259E-02   '
               '6.5202E+01  0.000E+00  0.000E+00  0.000E+00  1.38046E+02  '
               '5.396E+00  1.239E+01  2.420E-03  1.460E-02 -3.384E-04\n',
               '-   1    4   26     1    26    6.5202E+01  1.4257E-02   '
               '6.5188E+01  0.000E+00  0.000E+00  0.000E+00  1.37745E+02  '
               '5.395E+00  1.239E+01  2.420E-03  1.460E-02 -3.383E-04\n',
               '-   1    4   27     1    27    6.5188E+01  1.4255E-02   '
               '6.5174E+01  0.000E+00  0.000E+00  0.000E+00  1.37445E+02  '
               '5.395E+00  1.239E+01  2.419E-03  1.459E-02 -3.381E-04\n',
               '-   1    4   28     1    28    6.5174E+01  1.4252E-02   '
               '6.5160E+01  0.000E+00  0.000E+00  0.000E+00  1.37144E+02  '
               '5.394E+00  1.238E+01  2.419E-03  1.459E-02 -3.379E-04\n',
               '-   1    4   29     1    29    6.5160E+01  1.4250E-02   '
               '6.5145E+01  0.000E+00  0.000E+00  0.000E+00  1.36844E+02  '
               '5.394E+00  1.238E+01  2.419E-03  1.459E-02 -3.358E-04\n',
               '-   1    4   30     1    30    6.5145E+01  1.4248E-02   '
               '6.5131E+01  0.000E+00  0.000E+00  0.000E+00  1.36543E+02  '
               '5.393E+00  1.238E+01  2.419E-03  1.459E-02 -3.355E-04\n',
               '-   1    4   31     1    31    6.5131E+01  1.4245E-02   '
               '6.5117E+01  0.000E+00  0.000E+00  0.000E+00  1.36243E+02  '
               '5.393E+00  1.238E+01  2.419E-03  1.458E-02 -3.393E-04\n',
               '-   1    4   32     1    32    6.5117E+01  1.4243E-02   '
               '6.5103E+01  0.000E+00  0.000E+00  0.000E+00  1.35942E+02  '
               '5.392E+00  1.238E+01  2.418E-03  1.458E-02 -3.376E-04\n',
               '-   1    4   33     1    33    6.5103E+01  1.4241E-02   '
               '6.5088E+01  0.000E+00  0.000E+00  0.000E+00  1.35642E+02  '
               '5.392E+00  1.238E+01  2.418E-03  1.458E-02 -3.359E-04\n',
               '-   1    4   34     1    34    6.5088E+01  1.4238E-02   '
               '6.5074E+01  0.000E+00  0.000E+00  0.000E+00  1.35342E+02  '
               '5.392E+00  1.238E+01  2.418E-03  1.457E-02 -3.341E-04\n',
               '-   1    4   35     1    35    6.5074E+01  1.4236E-02   '
               '6.5060E+01  0.000E+00  0.000E+00  0.000E+00  1.35041E+02  '
               '5.391E+00  1.238E+01  2.418E-03  1.457E-02 -3.322E-04\n',
               '-   1    4   36     1    36    6.5060E+01  1.4234E-02   '
               '6.5046E+01  0.000E+00  0.000E+00  0.000E+00  1.34741E+02  '
               '5.391E+00  1.238E+01  2.418E-03  1.456E-02 -3.302E-04\n',
               '-   1    4   37     1    37    6.5046E+01  1.4231E-02   '
               '6.5032E+01  0.000E+00  0.000E+00  0.000E+00  1.34440E+02  '
               '5.390E+00  1.237E+01  2.417E-03  1.456E-02 -3.282E-04\n',
               '-   1    4   38     1    38    6.5032E+01  1.4229E-02   '
               '6.5017E+01  0.000E+00  0.000E+00  0.000E+00  1.34140E+02  '
               '5.390E+00  1.237E+01  2.417E-03  1.456E-02 -3.262E-04\n',
               '-   1    4   39     1    39    6.5017E+01  1.4227E-02   '
               '6.5003E+01  0.000E+00  0.000E+00  0.000E+00  1.33839E+02  '
               '5.389E+00  1.237E+01  2.417E-03  1.455E-02 -3.241E-04\n',
               '-   1    4   40     1    40    6.5003E+01  1.4224E-02   '
               '6.4989E+01  0.000E+00  0.000E+00  0.000E+00  1.33539E+02  '
               '5.389E+00  1.237E+01  2.417E-03  1.455E-02 -3.219E-04\n',
               '-   1    4   41     1    41    6.4989E+01  1.4222E-02   '
               '6.4975E+01  0.000E+00  0.000E+00  0.000E+00  1.33238E+02  '
               '5.388E+00  1.237E+01  2.416E-03  1.454E-02 -3.197E-04\n',
               '-   1    4   42     1    42    6.4975E+01  1.4220E-02   '
               '6.4960E+01  0.000E+00  0.000E+00  0.000E+00  1.32938E+02  '
               '5.388E+00  1.237E+01  2.416E-03  1.454E-02 -3.175E-04\n',
               '-   1    4   43     1    43    6.4960E+01  1.4218E-02   '
               '6.4946E+01  0.000E+00  0.000E+00  0.000E+00  1.32638E+02  '
               '5.388E+00  1.237E+01  2.416E-03  1.453E-02 -3.152E-04\n',
               '-   1    4   44     1    44    6.4946E+01  1.4215E-02   '
               '6.4932E+01  0.000E+00  0.000E+00  0.000E+00  1.32337E+02  '
               '5.387E+00  1.237E+01  2.416E-03  1.453E-02 -3.129E-04\n',
               '-   1    4   45     1    45    6.4932E+01  1.4213E-02   '
               '6.4918E+01  0.000E+00  0.000E+00  0.000E+00  1.32037E+02  '
               '5.387E+00  1.236E+01  2.416E-03  1.452E-02 -3.106E-04\n',
               '-   1    4   46     1    46    6.4918E+01  1.4211E-02   '
               '6.4904E+01  0.000E+00  0.000E+00  0.000E+00  1.31736E+02  '
               '5.386E+00  1.236E+01  2.415E-03  1.452E-02 -3.082E-04\n',
               '-   1    4   47     1    47    6.4904E+01  1.4208E-02   '
               '6.4889E+01  0.000E+00  0.000E+00  0.000E+00  1.31436E+02  '
               '5.386E+00  1.236E+01  2.415E-03  1.451E-02 -3.058E-04\n',
               '-   1    4   48     1    48    6.4889E+01  1.4206E-02   '
               '6.4875E+01  0.000E+00  0.000E+00  0.000E+00  1.31135E+02  '
               '5.385E+00  1.236E+01  2.415E-03  1.451E-02 -3.034E-04\n',
               '-   1    4   49     1    49    6.4875E+01  1.4204E-02   '
               '6.4861E+01  0.000E+00  0.000E+00  0.000E+00  1.30835E+02  '
               '5.385E+00  1.236E+01  2.415E-03  1.450E-02 -3.010E-04\n',
               '-   1    4   50     1    50    6.4861E+01  1.4201E-02   '
               '6.4847E+01  0.000E+00  0.000E+00  0.000E+00  1.30534E+02  '
               '5.384E+00  1.236E+01  2.415E-03  1.450E-02 -2.986E-04\n',
               '-   1    4   51     1    51    6.4847E+01  1.4199E-02   '
               '6.4833E+01  0.000E+00  0.000E+00  0.000E+00  1.30234E+02  '
               '5.384E+00  1.236E+01  2.414E-03  1.450E-02 -2.961E-04\n',
               '-   1    4   52     1    52    6.4833E+01  1.4197E-02   '
               '6.4818E+01  0.000E+00  0.000E+00  0.000E+00  1.29933E+02  '
               '5.383E+00  1.236E+01  2.414E-03  1.449E-02 -2.937E-04\n',
               '-   1    4   53     1    53    6.4818E+01  1.4194E-02   '
               '6.4804E+01  0.000E+00  0.000E+00  0.000E+00  1.29633E+02  '
               '5.383E+00  1.235E+01  2.414E-03  1.449E-02 -2.912E-04\n',
               '-   1    4   54     1    54    6.4804E+01  1.4192E-02   '
               '6.4790E+01  0.000E+00  0.000E+00  0.000E+00  1.29333E+02  '
               '5.383E+00  1.235E+01  2.414E-03  1.448E-02 -2.888E-04\n',
               '-   1    4   55     1    55    6.4790E+01  1.4190E-02   '
               '6.4776E+01  0.000E+00  0.000E+00  0.000E+00  1.29032E+02  '
               '5.382E+00  1.235E+01  2.414E-03  1.448E-02 -2.864E-04\n',
               '-   1    4   56     1    56    6.4776E+01  1.4187E-02   '
               '6.4762E+01  0.000E+00  0.000E+00  0.000E+00  1.28732E+02  '
               '5.382E+00  1.235E+01  2.413E-03  1.447E-02 -2.840E-04\n',
               '-   1    4   57     1    57    6.4762E+01  1.4185E-02   '
               '6.4747E+01  0.000E+00  0.000E+00  0.000E+00  1.28431E+02  '
               '5.381E+00  1.235E+01  2.413E-03  1.447E-02 -2.817E-04\n',
               '-   1    4   58     1    58    6.4747E+01  1.4183E-02   '
               '6.4733E+01  0.000E+00  0.000E+00  0.000E+00  1.28131E+02  '
               '5.381E+00  1.235E+01  2.413E-03  1.446E-02 -2.793E-04\n',
               '-   1    4   59     1    59    6.4733E+01  1.4180E-02   '
               '6.4719E+01  0.000E+00  0.000E+00  0.000E+00  1.27830E+02  '
               '5.380E+00  1.235E+01  2.413E-03  1.446E-02 -2.771E-04\n',
               '-   1    4   60     1    60    6.4719E+01  1.4178E-02   '
               '6.4705E+01  0.000E+00  0.000E+00  0.000E+00  1.27530E+02  '
               '5.380E+00  1.235E+01  2.413E-03  1.445E-02 -2.748E-04\n',
               '-   1    4   61     1    61    6.4705E+01  1.4176E-02   '
               '6.4691E+01  0.000E+00  0.000E+00  0.000E+00  1.27229E+02  '
               '5.379E+00  1.235E+01  2.412E-03  1.445E-02 -2.727E-04\n',
               '-   1    4   62     1    62    6.4691E+01  1.4173E-02   '
               '6.4676E+01  0.000E+00  0.000E+00  0.000E+00  1.26929E+02  '
               '5.379E+00  1.234E+01  2.412E-03  1.444E-02 -2.705E-04\n',
               '-   1    4   63     1    63    6.4676E+01  1.4171E-02   '
               '6.4662E+01  0.000E+00  0.000E+00  0.000E+00  1.26629E+02  '
               '5.379E+00  1.234E+01  2.412E-03  1.444E-02 -2.685E-04\n',
               '-   1    4   64     1    64    6.4662E+01  1.4169E-02   '
               '6.4648E+01  0.000E+00  0.000E+00  0.000E+00  1.26328E+02  '
               '5.378E+00  1.234E+01  2.412E-03  1.444E-02 -2.665E-04\n',
               '-   1    4   65     1    65    6.4648E+01  1.4166E-02   '
               '6.4634E+01  0.000E+00  0.000E+00  0.000E+00  1.26028E+02  '
               '5.378E+00  1.234E+01  2.411E-03  1.443E-02 -2.646E-04\n',
               '-   1    4   66     1    66    6.4634E+01  1.4164E-02   '
               '6.4620E+01  0.000E+00  0.000E+00  0.000E+00  1.25727E+02  '
               '5.377E+00  1.234E+01  2.411E-03  1.443E-02 -2.628E-04\n',
               '-   1    4   67     1    67    6.4620E+01  1.4162E-02   '
               '6.4606E+01  0.000E+00  0.000E+00  0.000E+00  1.25427E+02  '
               '5.377E+00  1.234E+01  2.411E-03  1.442E-02 -2.610E-04\n',
               '-   1    4   68     1    68    6.4606E+01  1.4160E-02   '
               '6.4592E+01  0.000E+00  0.000E+00  0.000E+00  1.25126E+02  '
               '5.376E+00  1.234E+01  2.411E-03  1.442E-02 -2.594E-04\n',
               '-   1    4   69     1    69    6.4592E+01  1.4157E-02   '
               '6.4577E+01  0.000E+00  0.000E+00  0.000E+00  1.24826E+02  '
               '5.376E+00  1.234E+01  2.411E-03  1.442E-02 -2.578E-04\n',
               '-   1    4   70     1    70    6.4577E+01  1.4155E-02   '
               '6.4563E+01  0.000E+00  0.000E+00  0.000E+00  1.24525E+02  '
               '5.375E+00  1.233E+01  2.410E-03  1.441E-02 -2.564E-04\n',
               '-   1    4   71     1    71    6.4563E+01  1.4153E-02   '
               '6.4549E+01  0.000E+00  0.000E+00  0.000E+00  1.24225E+02  '
               '5.375E+00  1.233E+01  2.410E-03  1.441E-02 -2.550E-04\n',
               '-   1    4   72     1    72    6.4549E+01  1.4150E-02   '
               '6.4535E+01  0.000E+00  0.000E+00  0.000E+00  1.23924E+02  '
               '5.374E+00  1.233E+01  2.410E-03  1.440E-02 -2.537E-04\n',
               '-   1    4   73     1    73    6.4535E+01  1.4148E-02   '
               '6.4521E+01  0.000E+00  0.000E+00  0.000E+00  1.23624E+02  '
               '5.374E+00  1.233E+01  2.410E-03  1.440E-02 -2.524E-04\n',
               '-   1    4   74     1    74    6.4521E+01  1.4146E-02   '
               '6.4507E+01  0.000E+00  0.000E+00  0.000E+00  1.23324E+02  '
               '5.374E+00  1.233E+01  2.410E-03  1.440E-02 -2.513E-04\n',
               '-   1    4   75     1    75    6.4507E+01  1.4143E-02   '
               '6.4492E+01  0.000E+00  0.000E+00  0.000E+00  1.23023E+02  '
               '5.373E+00  1.233E+01  2.409E-03  1.439E-02 -2.502E-04\n',
               '-   1    4   76     1    76    6.4492E+01  1.4141E-02   '
               '6.4478E+01  0.000E+00  0.000E+00  0.000E+00  1.22723E+02  '
               '5.373E+00  1.233E+01  2.409E-03  1.439E-02 -2.491E-04\n',
               '-   1    4   77     1    77    6.4478E+01  1.4139E-02   '
               '6.4464E+01  0.000E+00  0.000E+00  0.000E+00  1.22422E+02  '
               '5.372E+00  1.233E+01  2.409E-03  1.439E-02 -2.481E-04\n',
               '-   1    4   78     1    78    6.4464E+01  1.4136E-02   '
               '6.4450E+01  0.000E+00  0.000E+00  0.000E+00  1.22122E+02  '
               '5.372E+00  1.232E+01  2.409E-03  1.438E-02 -2.471E-04\n',
               '-   1    4   79     1    79    6.4450E+01  1.4134E-02   '
               '6.4436E+01  0.000E+00  0.000E+00  0.000E+00  1.21821E+02  '
               '5.371E+00  1.232E+01  2.409E-03  1.438E-02 -2.460E-04\n',
               '-   1    4   80     1    80    6.4436E+01  1.4132E-02   '
               '6.4422E+01  0.000E+00  0.000E+00  0.000E+00  1.21521E+02  '
               '5.371E+00  1.232E+01  2.408E-03  1.438E-02 -2.449E-04\n',
               '-   1    4   81     1    81    6.4422E+01  1.4129E-02   '
               '6.4408E+01  0.000E+00  0.000E+00  0.000E+00  1.21220E+02  '
               '5.370E+00  1.232E+01  2.408E-03  1.437E-02 -2.437E-04\n',
               '-   1    4   82     1    82    6.4408E+01  1.4127E-02   '
               '6.4394E+01  0.000E+00  0.000E+00  0.000E+00  1.20920E+02  '
               '5.370E+00  1.232E+01  2.408E-03  1.437E-02 -2.422E-04\n',
               '-   1    4   83     1    83    6.4394E+01  1.4125E-02   '
               '6.4379E+01  0.000E+00  0.000E+00  0.000E+00  1.20620E+02  '
               '5.370E+00  1.232E+01  2.408E-03  1.437E-02 -2.406E-04\n',
               '-   1    4   84     1    84    6.4379E+01  1.4122E-02   '
               '6.4365E+01  0.000E+00  0.000E+00  0.000E+00  1.20319E+02  '
               '5.369E+00  1.232E+01  2.407E-03  1.436E-02 -2.385E-04\n',
               '-   1    4   85     1    85    6.4365E+01  1.4120E-02   '
               '6.4351E+01  0.000E+00  0.000E+00  0.000E+00  1.20019E+02  '
               '5.369E+00  1.232E+01  2.407E-03  1.436E-02 -2.360E-04\n',
               '-   1    4   86     1    86    6.4351E+01  1.4118E-02   '
               '6.4337E+01  0.000E+00  0.000E+00  0.000E+00  1.19718E+02  '
               '5.368E+00  1.232E+01  2.407E-03  1.435E-02 -2.330E-04\n',
               '-   1    4   87     1    87    6.4337E+01  1.4116E-02   '
               '6.4323E+01  0.000E+00  0.000E+00  0.000E+00  1.19418E+02  '
               '5.368E+00  1.231E+01  2.407E-03  1.434E-02 -2.291E-04\n',
               '-   1    4   88     1    88    6.4323E+01  1.4113E-02   '
               '6.4309E+01  0.000E+00  0.000E+00  0.000E+00  1.19117E+02  '
               '5.367E+00  1.231E+01  2.407E-03  1.434E-02 -2.243E-04\n',
               '-   1    4   89     1    89    6.4309E+01  1.4111E-02   '
               '6.4295E+01  0.000E+00  0.000E+00  0.000E+00  1.18817E+02  '
               '5.367E+00  1.231E+01  2.406E-03  1.433E-02 -2.182E-04\n',
               '-   1    4   90     1    90    6.4295E+01  1.4109E-02   '
               '6.4281E+01  0.000E+00  0.000E+00  0.000E+00  1.18516E+02  '
               '5.366E+00  1.231E+01  2.406E-03  1.432E-02 -2.107E-04\n',
               '-   1    4   91     1    91    6.4281E+01  1.4106E-02   '
               '6.4266E+01  0.000E+00  0.000E+00  0.000E+00  1.18216E+02  '
               '5.366E+00  1.231E+01  2.406E-03  1.431E-02 -2.015E-04\n',
               '-   1    4   92     1    92    6.4266E+01  1.4104E-02   '
               '6.4252E+01  0.000E+00  0.000E+00  0.000E+00  1.17915E+02  '
               '5.365E+00  1.231E+01  2.406E-03  1.429E-02 -1.901E-04\n',
               '-   1    4   93     1    93    6.4252E+01  1.4102E-02   '
               '6.4238E+01  0.000E+00  0.000E+00  0.000E+00  1.17615E+02  '
               '5.365E+00  1.231E+01  2.406E-03  1.428E-02 -1.764E-04\n',
               '-   1    4   94     1    94    6.4238E+01  1.4099E-02   '
               '6.4224E+01  0.000E+00  0.000E+00  0.000E+00  1.17315E+02  '
               '5.365E+00  1.231E+01  2.405E-03  1.426E-02 -1.600E-04\n',
               '-   1    4   95     1    95    6.4224E+01  1.4097E-02   '
               '6.4210E+01  0.000E+00  0.000E+00  0.000E+00  1.17014E+02  '
               '5.364E+00  1.230E+01  2.405E-03  1.424E-02 -1.407E-04\n',
               '-   1    4   96     1    96    6.4210E+01  1.4095E-02   '
               '6.4196E+01  0.000E+00  0.000E+00  0.000E+00  1.16714E+02  '
               '5.364E+00  1.230E+01  2.405E-03  1.421E-02 -1.184E-04\n',
               '-   1    4   97     1    97    6.4196E+01  1.4092E-02   '
               '6.4182E+01  0.000E+00  0.000E+00  0.000E+00  1.16413E+02  '
               '5.363E+00  1.230E+01  2.405E-03  1.419E-02 -9.289E-05\n',
               '-   1    4   98     1    98    6.4182E+01  1.4090E-02   '
               '6.4168E+01  0.000E+00  0.000E+00  0.000E+00  1.16113E+02  '
               '5.363E+00  1.230E+01  2.405E-03  1.415E-02 -6.448E-05\n',
               '-   1    4   99     1    99    6.4168E+01  1.4088E-02   '
               '6.4154E+01  0.000E+00  0.000E+00  0.000E+00  1.15812E+02  '
               '5.362E+00  1.230E+01  2.404E-03  1.412E-02 -3.343E-05\n',
               '-   1    4  100     1   100    6.4154E+01  1.4086E-02   '
               '6.4140E+01  0.000E+00  0.000E+00  0.000E+00  1.15512E+02  '
               '5.362E+00  1.230E+01  2.404E-03  0.000E+00  0.000E+00\n',
               '-\n',
               '-\n',
               '-\n',
               '-1\n',
               '-  VOLUMETRIC BUDGET FOR UNSATURATED ZONE BENEATH STREAMS AT '
               'END OF TIME STEP    30 STRESS PERIOD  19\n',
               '-  '
               '------------------------------------------------------------------------------------------------\n',
               '-\n',
               '-    CUMULATIVE VOLUMES             L**3    RATES FOR THIS '
               'TIME STEP         L**3/T\n',
               '-    ------------------                     '
               '------------------------\n',
               '-\n',
               '-\n',
               '-          STREAM LOSS =     22968508.0000            STREAM '
               'LOSS =            1.4200\n',
               '-    CHANGE IN STORAGE =      1193746.2500      CHANGE IN '
               'STORAGE =       -2.7930E-02\n',
               '-       RECHARGE TO GW =     21778388.0000         RECHARGE TO '
               'GW =            1.4479\n',
               '-\n',
               '-             TOTAL IN =     22968508.0000               TOTAL '
               'IN =            1.4479\n',
               '-\n',
               '-            TOTAL OUT =     22972134.0000              TOTAL '
               'OUT =            1.4479\n',
               '-\n',
               '-             IN - OUT =        -3626.0000               IN - '
               'OUT =        1.1921E-07\n',
               '-\n',
               '-  PERCENT DISCREPANCY =           -0.00      PERCENT '
               'DISCREPANCY =             0.00\n',
               '-\n',
               '-\n',
               '-\n',
               '-1\n',
               '-  VOLUMETRIC BUDGET FOR ENTIRE MODEL AT END OF TIME STEP   '
               '30, STRESS PERIOD  19\n',
               '-  '
               '------------------------------------------------------------------------------\n',
               '-\n',
               '-     CUMULATIVE VOLUMES      L**3       RATES FOR THIS TIME '
               'STEP      L**3/T\n',
               '-     ------------------                 '
               '------------------------\n',
               '-\n',
               '-           IN:                                      IN:\n',
               '-           ---                                      ---\n',
               '-             STORAGE =    10159985.0000               STORAGE '
               '=           0.0000\n',
               '-       CONSTANT HEAD =           0.0000         CONSTANT HEAD '
               '=           0.0000\n',
               '-     HEAD DEP BOUNDS =           0.0000       HEAD DEP BOUNDS '
               '=           0.0000\n',
               '-      STREAM LEAKAGE =    21778436.0000        STREAM LEAKAGE '
               '=           1.4479\n',
               '-\n',
               '-            TOTAL IN =    31938420.0000              TOTAL IN '
               '=           1.4479\n',
               '-\n',
               '-          OUT:                                     OUT:\n',
               '-          ----                                     ----\n',
               '-             STORAGE =    13128549.0000               STORAGE '
               '=           1.1281\n',
               '-       CONSTANT HEAD =           0.0000         CONSTANT HEAD '
               '=           0.0000\n',
               '-     HEAD DEP BOUNDS =    18809826.0000       HEAD DEP BOUNDS '
               '=           0.3197\n',
               '-      STREAM LEAKAGE =           0.0000        STREAM LEAKAGE '
               '=           0.0000\n',
               '-\n',
               '-           TOTAL OUT =    31938376.0000             TOTAL OUT '
               '=           1.4479\n',
               '-\n',
               '-            IN - OUT =          44.0000              IN - OUT '
               '=       9.2387E-05\n',
               '-\n',
               '- PERCENT DISCREPANCY =           0.00     PERCENT DISCREPANCY '
               '=           0.01\n',
               '-\n',
               '-\n',
               '-\n',
               '-\n',
               '-\n',
               '-\n',
               '-         TIME SUMMARY AT END OF TIME STEP   30 IN STRESS '
               'PERIOD   19\n',
               '-                    SECONDS     MINUTES      HOURS       '
               'DAYS        YEARS\n',
               '-                    '
               '-----------------------------------------------------------\n',
               '-   TIME STEP LENGTH 2.49961E+05  4166.0      69.434      '
               '2.8931     7.92080E-03\n',
               '- STRESS PERIOD TIME 2.59200E+06  43200.      720.00      '
               '30.000     8.21355E-02\n',
               '-         TOTAL TIME 4.92480E+07 8.20800E+05  13680.      '
               '570.00      1.5606    \n',
               '-1\n',
               '-1\n',
               '-                            STRESS PERIOD NO.   20, LENGTH '
               '=   2592000.    \n',
               '-                            '
               '-----------------------------------------------\n',
               '-\n',
               '-                              NUMBER OF TIME STEPS =    30\n',
               '-\n',
               '-                               MULTIPLIER FOR DELT =     '
               '1.100\n',
               '-\n',
               '-                            INITIAL TIME STEP SIZE =   '
               '15757.40    \n',
               '-\n',
               '- REUSING NON-PARAMETER GHB CELLS FROM LAST STRESS PERIOD\n',
               '-\n',
               '-      7 GHB CELLS\n',
               '- \n',
               '- SOLVING FOR HEAD \n',
               '-\n',
               '- NO OUTPUT CONTROL FOR STRESS PERIOD   20   TIME STEP    1\n',
               '- \n',
               '- SOLVING FOR HEAD \n',
               '-\n',
               '- NO OUTPUT CONTROL FOR STRESS PERIOD   20   TIME STEP    2\n',
               '- \n',
               '- SOLVING FOR HEAD \n',
               '-\n',
               '- NO OUTPUT CONTROL FOR STRESS PERIOD   20   TIME STEP    3\n',
               '- \n',
               '- SOLVING FOR HEAD \n',
               '-\n',
               '- NO OUTPUT CONTROL FOR STRESS PERIOD   20   TIME STEP    4\n',
               '- \n',
               '- SOLVING FOR HEAD \n',
               '-\n',
               '- NO OUTPUT CONTROL FOR STRESS PERIOD   20   TIME STEP    5\n',
               '- \n',
               '- SOLVING FOR HEAD \n',
               '-\n',
               '- NO OUTPUT CONTROL FOR STRESS PERIOD   20   TIME STEP    6\n',
               '- \n',
               '- SOLVING FOR HEAD \n',
               '-\n',
               '- NO OUTPUT CONTROL FOR STRESS PERIOD   20   TIME STEP    7\n',
               '- \n',
               '- SOLVING FOR HEAD \n',
               '-\n',
               '- NO OUTPUT CONTROL FOR STRESS PERIOD   20   TIME STEP    8\n',
               '- \n',
               '- SOLVING FOR HEAD \n',
               '-\n',
               '- NO OUTPUT CONTROL FOR STRESS PERIOD   20   TIME STEP    9\n',
               '- \n',
               '- SOLVING FOR HEAD \n',
               '-\n',
               '- NO OUTPUT CONTROL FOR STRESS PERIOD   20   TIME STEP   10\n',
               '- \n',
               '- SOLVING FOR HEAD \n',
               '-\n',
               '- NO OUTPUT CONTROL FOR STRESS PERIOD   20   TIME STEP   11\n',
               '- \n',
               '- SOLVING FOR HEAD \n',
               '-\n',
               '- NO OUTPUT CONTROL FOR STRESS PERIOD   20   TIME STEP   12\n',
               '- \n',
               '- SOLVING FOR HEAD \n',
               '-\n',
               '- NO OUTPUT CONTROL FOR STRESS PERIOD   20   TIME STEP   13\n',
               '- \n',
               '- SOLVING FOR HEAD \n',
               '-\n',
               '- NO OUTPUT CONTROL FOR STRESS PERIOD   20   TIME STEP   14\n',
               '- \n',
               '- SOLVING FOR HEAD \n',
               '-\n',
               '- NO OUTPUT CONTROL FOR STRESS PERIOD   20   TIME STEP   15\n',
               '- \n',
               '- SOLVING FOR HEAD \n',
               '-\n',
               '- NO OUTPUT CONTROL FOR STRESS PERIOD   20   TIME STEP   16\n',
               '- \n',
               '- SOLVING FOR HEAD \n',
               '-\n',
               '- NO OUTPUT CONTROL FOR STRESS PERIOD   20   TIME STEP   17\n',
               '- \n',
               '- SOLVING FOR HEAD \n',
               '-\n',
               '- NO OUTPUT CONTROL FOR STRESS PERIOD   20   TIME STEP   18\n',
               '- \n',
               '- SOLVING FOR HEAD \n',
               '-\n',
               '- NO OUTPUT CONTROL FOR STRESS PERIOD   20   TIME STEP   19\n',
               '- \n',
               '- SOLVING FOR HEAD \n',
               '-\n',
               '- NO OUTPUT CONTROL FOR STRESS PERIOD   20   TIME STEP   20\n',
               '- \n',
               '- SOLVING FOR HEAD \n',
               '-\n',
               '- NO OUTPUT CONTROL FOR STRESS PERIOD   20   TIME STEP   21\n',
               '- \n',
               '- SOLVING FOR HEAD \n',
               '-\n',
               '- NO OUTPUT CONTROL FOR STRESS PERIOD   20   TIME STEP   22\n',
               '- \n',
               '- SOLVING FOR HEAD \n',
               '-\n',
               '- NO OUTPUT CONTROL FOR STRESS PERIOD   20   TIME STEP   23\n',
               '- \n',
               '- SOLVING FOR HEAD \n',
               '-\n',
               '- NO OUTPUT CONTROL FOR STRESS PERIOD   20   TIME STEP   24\n',
               '- \n',
               '- SOLVING FOR HEAD \n',
               '-\n',
               '- NO OUTPUT CONTROL FOR STRESS PERIOD   20   TIME STEP   25\n',
               '- \n',
               '- SOLVING FOR HEAD \n',
               '-\n',
               '- NO OUTPUT CONTROL FOR STRESS PERIOD   20   TIME STEP   26\n',
               '- \n',
               '- SOLVING FOR HEAD \n',
               '-\n',
               '- NO OUTPUT CONTROL FOR STRESS PERIOD   20   TIME STEP   27\n',
               '- \n',
               '- SOLVING FOR HEAD \n',
               '-\n',
               '- NO OUTPUT CONTROL FOR STRESS PERIOD   20   TIME STEP   28\n',
               '- \n',
               '- SOLVING FOR HEAD \n',
               '-\n',
               '- NO OUTPUT CONTROL FOR STRESS PERIOD   20   TIME STEP   29\n',
               '- \n',
               '- SOLVING FOR HEAD \n',
               '-\n',
               '- OUTPUT CONTROL FOR STRESS PERIOD   20   TIME STEP   30\n',
               '-    PRINT HEAD FOR ALL LAYERS\n',
               '-    PRINT BUDGET\n',
               '-    SAVE BUDGET\n',
               '-\n',
               '-  HEAD DEP BOUNDS   PERIOD   20   STEP  30\n',
               '- BOUNDARY      1   LAYER   1   ROW     1   COL   100   RATE   '
               '-4.533674E-02\n',
               '- BOUNDARY      2   LAYER   1   ROW     2   COL   100   RATE   '
               '-4.553106E-02\n',
               '- BOUNDARY      3   LAYER   1   ROW     3   COL   100   RATE   '
               '-4.574074E-02\n',
               '- BOUNDARY      4   LAYER   1   ROW     4   COL   100   RATE   '
               '-4.021832E-02\n',
               '- BOUNDARY      5   LAYER   1   ROW     5   COL   100   RATE   '
               '-4.574074E-02\n',
               '- BOUNDARY      6   LAYER   1   ROW     6   COL   100   RATE   '
               '-4.553106E-02\n',
               '- BOUNDARY      7   LAYER   1   ROW     7   COL   100   RATE   '
               '-4.533674E-02\n',
               '-\n',
               '-\n',
               '-\n',
               '- STREAM LISTING     PERIOD     20   STEP       30\n',
               '-\n',
               '- LAYER ROW COL. STREAM  RCH.   FLOW INTO    STREAM     FLOW '
               'OUT OF   OVRLND.    DIRECT     STREAM      STREAM      '
               'STREAM     STREAM  STREAMBED   FLOW TO   CHNG. UNSAT. \n',
               '-                SEG.NO.  NO.   STRM. RCH.    LOSS       STRM. '
               'RCH.   RUNOFF     PRECIP       ET         HEAD        '
               'DEPTH      WIDTH  CONDCTNC.   WAT. TAB.\n',
               '-\n',
               '-   1    4    1     1     1    3.5560E+01  8.9052E-03   '
               '3.5551E+01  0.000E+00  0.000E+00  0.000E+00  1.44127E+02  '
               '4.277E+00  9.106E+00  1.862E-03  9.091E-03 -1.862E-04\n',
               '-   1    4    2     1     2    3.5551E+01  8.9031E-03   '
               '3.5542E+01  0.000E+00  0.000E+00  0.000E+00  1.43826E+02  '
               '4.276E+00  9.104E+00  1.862E-03  9.089E-03 -1.861E-04\n',
               '-   1    4    3     1     3    3.5542E+01  8.9011E-03   '
               '3.5533E+01  0.000E+00  0.000E+00  0.000E+00  1.43526E+02  '
               '4.276E+00  9.103E+00  1.861E-03  9.087E-03 -1.860E-04\n',
               '-   1    4    4     1     4    3.5533E+01  8.8991E-03   '
               '3.5524E+01  0.000E+00  0.000E+00  0.000E+00  1.43225E+02  '
               '4.275E+00  9.101E+00  1.861E-03  9.085E-03 -1.859E-04\n',
               '-   1    4    5     1     5    3.5524E+01  8.8971E-03   '
               '3.5515E+01  0.000E+00  0.000E+00  0.000E+00  1.42925E+02  '
               '4.275E+00  9.099E+00  1.861E-03  9.083E-03 -1.857E-04\n',
               '-   1    4    6     1     6    3.5515E+01  8.8950E-03   '
               '3.5506E+01  0.000E+00  0.000E+00  0.000E+00  1.42624E+02  '
               '4.274E+00  9.098E+00  1.861E-03  9.081E-03 -1.855E-04\n',
               '-   1    4    7     1     7    3.5506E+01  8.8930E-03   '
               '3.5498E+01  0.000E+00  0.000E+00  0.000E+00  1.42324E+02  '
               '4.274E+00  9.096E+00  1.860E-03  9.078E-03 -1.852E-04\n',
               '-   1    4    8     1     8    3.5498E+01  8.8910E-03   '
               '3.5489E+01  0.000E+00  0.000E+00  0.000E+00  1.42024E+02  '
               '4.274E+00  9.094E+00  1.860E-03  9.076E-03 -1.849E-04\n',
               '-   1    4    9     1     9    3.5489E+01  8.8890E-03   '
               '3.5480E+01  0.000E+00  0.000E+00  0.000E+00  1.41723E+02  '
               '4.273E+00  9.093E+00  1.860E-03  9.073E-03 -1.845E-04\n',
               '-   1    4   10     1    10    3.5480E+01  8.8870E-03   '
               '3.5471E+01  0.000E+00  0.000E+00  0.000E+00  1.41423E+02  '
               '4.273E+00  9.091E+00  1.860E-03  9.071E-03 -1.841E-04\n',
               '-   1    4   11     1    11    3.5471E+01  8.8849E-03   '
               '3.5462E+01  0.000E+00  0.000E+00  0.000E+00  1.41122E+02  '
               '4.272E+00  9.089E+00  1.859E-03  9.069E-03 -1.836E-04\n',
               '-   1    4   12     1    12    3.5462E+01  8.8829E-03   '
               '3.5453E+01  0.000E+00  0.000E+00  0.000E+00  1.40822E+02  '
               '4.272E+00  9.088E+00  1.859E-03  9.066E-03 -1.831E-04\n',
               '-   1    4   13     1    13    3.5453E+01  8.8809E-03   '
               '3.5444E+01  0.000E+00  0.000E+00  0.000E+00  1.40522E+02  '
               '4.272E+00  9.086E+00  1.859E-03  9.063E-03 -1.825E-04\n',
               '-   1    4   14     1    14    3.5444E+01  8.8789E-03   '
               '3.5435E+01  0.000E+00  0.000E+00  0.000E+00  1.40221E+02  '
               '4.271E+00  9.084E+00  1.859E-03  9.061E-03 -1.818E-04\n',
               '-   1    4   15     1    15    3.5435E+01  8.8769E-03   '
               '3.5426E+01  0.000E+00  0.000E+00  0.000E+00  1.39921E+02  '
               '4.271E+00  9.083E+00  1.858E-03  9.058E-03 -1.811E-04\n',
               '-   1    4   16     1    16    3.5426E+01  8.8748E-03   '
               '3.5418E+01  0.000E+00  0.000E+00  0.000E+00  1.39620E+02  '
               '4.270E+00  9.081E+00  1.858E-03  9.055E-03 -1.804E-04\n',
               '-   1    4   17     1    17    3.5418E+01  8.8728E-03   '
               '3.5409E+01  0.000E+00  0.000E+00  0.000E+00  1.39320E+02  '
               '4.270E+00  9.079E+00  1.858E-03  9.052E-03 -1.796E-04\n',
               '-   1    4   18     1    18    3.5409E+01  8.8708E-03   '
               '3.5400E+01  0.000E+00  0.000E+00  0.000E+00  1.39019E+02  '
               '4.269E+00  9.078E+00  1.858E-03  9.050E-03 -1.788E-04\n',
               '-   1    4   19     1    19    3.5400E+01  8.8688E-03   '
               '3.5391E+01  0.000E+00  0.000E+00  0.000E+00  1.38719E+02  '
               '4.269E+00  9.076E+00  1.857E-03  9.047E-03 -1.779E-04\n',
               '-   1    4   20     1    20    3.5391E+01  8.8668E-03   '
               '3.5382E+01  0.000E+00  0.000E+00  0.000E+00  1.38419E+02  '
               '4.269E+00  9.074E+00  1.857E-03  9.044E-03 -1.770E-04\n',
               '-   1    4   21     1    21    3.5382E+01  8.8648E-03   '
               '3.5373E+01  0.000E+00  0.000E+00  0.000E+00  1.38118E+02  '
               '4.268E+00  9.073E+00  1.857E-03  9.041E-03 -1.760E-04\n',
               '-   1    4   22     1    22    3.5373E+01  8.8627E-03   '
               '3.5364E+01  0.000E+00  0.000E+00  0.000E+00  1.37818E+02  '
               '4.268E+00  9.071E+00  1.856E-03  9.038E-03 -1.750E-04\n',
               '-   1    4   23     1    23    3.5364E+01  8.8607E-03   '
               '3.5356E+01  0.000E+00  0.000E+00  0.000E+00  1.37517E+02  '
               '4.267E+00  9.069E+00  1.856E-03  9.035E-03 -1.740E-04\n',
               '-   1    4   24     1    24    3.5356E+01  8.8587E-03   '
               '3.5347E+01  0.000E+00  0.000E+00  0.000E+00  1.37217E+02  '
               '4.267E+00  9.068E+00  1.856E-03  9.032E-03 -1.729E-04\n',
               '-   1    4   25     1    25    3.5347E+01  8.8567E-03   '
               '3.5338E+01  0.000E+00  0.000E+00  0.000E+00  1.36917E+02  '
               '4.267E+00  9.066E+00  1.856E-03  9.028E-03 -1.717E-04\n',
               '-   1    4   26     1    26    3.5338E+01  8.8547E-03   '
               '3.5329E+01  0.000E+00  0.000E+00  0.000E+00  1.36616E+02  '
               '4.266E+00  9.064E+00  1.855E-03  9.025E-03 -1.706E-04\n',
               '-   1    4   27     1    27    3.5329E+01  8.8527E-03   '
               '3.5320E+01  0.000E+00  0.000E+00  0.000E+00  1.36316E+02  '
               '4.266E+00  9.063E+00  1.855E-03  9.022E-03 -1.693E-04\n',
               '-   1    4   28     1    28    3.5320E+01  8.8507E-03   '
               '3.5311E+01  0.000E+00  0.000E+00  0.000E+00  1.36015E+02  '
               '4.265E+00  9.061E+00  1.855E-03  9.019E-03 -1.681E-04\n',
               '-   1    4   29     1    29    3.5311E+01  8.8486E-03   '
               '3.5302E+01  0.000E+00  0.000E+00  0.000E+00  1.35715E+02  '
               '4.265E+00  9.059E+00  1.855E-03  9.015E-03 -1.668E-04\n',
               '-   1    4   30     1    30    3.5302E+01  8.8466E-03   '
               '3.5294E+01  0.000E+00  0.000E+00  0.000E+00  1.35414E+02  '
               '4.264E+00  9.058E+00  1.854E-03  9.012E-03 -1.654E-04\n',
               '-   1    4   31     1    31    3.5294E+01  8.8446E-03   '
               '3.5285E+01  0.000E+00  0.000E+00  0.000E+00  1.35114E+02  '
               '4.264E+00  9.056E+00  1.854E-03  9.009E-03 -1.640E-04\n',
               '-   1    4   32     1    32    3.5285E+01  8.8426E-03   '
               '3.5276E+01  0.000E+00  0.000E+00  0.000E+00  1.34814E+02  '
               '4.264E+00  9.054E+00  1.854E-03  9.005E-03 -1.626E-04\n',
               '-   1    4   33     1    33    3.5276E+01  8.8406E-03   '
               '3.5267E+01  0.000E+00  0.000E+00  0.000E+00  1.34513E+02  '
               '4.263E+00  9.053E+00  1.854E-03  9.002E-03 -1.611E-04\n',
               '-   1    4   34     1    34    3.5267E+01  8.8386E-03   '
               '3.5258E+01  0.000E+00  0.000E+00  0.000E+00  1.34213E+02  '
               '4.263E+00  9.051E+00  1.853E-03  8.998E-03 -1.596E-04\n',
               '-   1    4   35     1    35    3.5258E+01  8.8366E-03   '
               '3.5249E+01  0.000E+00  0.000E+00  0.000E+00  1.33912E+02  '
               '4.262E+00  9.049E+00  1.853E-03  8.995E-03 -1.581E-04\n',
               '-   1    4   36     1    36    3.5249E+01  8.8346E-03   '
               '3.5240E+01  0.000E+00  0.000E+00  0.000E+00  1.33612E+02  '
               '4.262E+00  9.048E+00  1.853E-03  8.991E-03 -1.565E-04\n',
               '-   1    4   37     1    37    3.5240E+01  8.8325E-03   '
               '3.5232E+01  0.000E+00  0.000E+00  0.000E+00  1.33312E+02  '
               '4.262E+00  9.046E+00  1.853E-03  8.987E-03 -1.549E-04\n',
               '-   1    4   38     1    38    3.5232E+01  8.8305E-03   '
               '3.5223E+01  0.000E+00  0.000E+00  0.000E+00  1.33011E+02  '
               '4.261E+00  9.044E+00  1.852E-03  8.984E-03 -1.532E-04\n',
               '-   1    4   39     1    39    3.5223E+01  8.8285E-03   '
               '3.5214E+01  0.000E+00  0.000E+00  0.000E+00  1.32711E+02  '
               '4.261E+00  9.043E+00  1.852E-03  8.980E-03 -1.515E-04\n',
               '-   1    4   40     1    40    3.5214E+01  8.8265E-03   '
               '3.5205E+01  0.000E+00  0.000E+00  0.000E+00  1.32410E+02  '
               '4.260E+00  9.041E+00  1.852E-03  8.976E-03 -1.498E-04\n',
               '-   1    4   41     1    41    3.5205E+01  8.8245E-03   '
               '3.5196E+01  0.000E+00  0.000E+00  0.000E+00  1.32110E+02  '
               '4.260E+00  9.039E+00  1.852E-03  8.973E-03 -1.480E-04\n',
               '-   1    4   42     1    42    3.5196E+01  8.8225E-03   '
               '3.5188E+01  0.000E+00  0.000E+00  0.000E+00  1.31809E+02  '
               '4.259E+00  9.038E+00  1.851E-03  8.969E-03 -1.463E-04\n',
               '-   1    4   43     1    43    3.5188E+01  8.8205E-03   '
               '3.5179E+01  0.000E+00  0.000E+00  0.000E+00  1.31509E+02  '
               '4.259E+00  9.036E+00  1.851E-03  8.965E-03 -1.444E-04\n',
               '-   1    4   44     1    44    3.5179E+01  8.8185E-03   '
               '3.5170E+01  0.000E+00  0.000E+00  0.000E+00  1.31209E+02  '
               '4.259E+00  9.034E+00  1.851E-03  8.961E-03 -1.426E-04\n',
               '-   1    4   45     1    45    3.5170E+01  8.8165E-03   '
               '3.5161E+01  0.000E+00  0.000E+00  0.000E+00  1.30908E+02  '
               '4.258E+00  9.033E+00  1.850E-03  8.957E-03 -1.408E-04\n',
               '-   1    4   46     1    46    3.5161E+01  8.8145E-03   '
               '3.5152E+01  0.000E+00  0.000E+00  0.000E+00  1.30608E+02  '
               '4.258E+00  9.031E+00  1.850E-03  8.953E-03 -1.389E-04\n',
               '-   1    4   47     1    47    3.5152E+01  8.8124E-03   '
               '3.5143E+01  0.000E+00  0.000E+00  0.000E+00  1.30307E+02  '
               '4.257E+00  9.029E+00  1.850E-03  8.949E-03 -1.370E-04\n',
               '-   1    4   48     1    48    3.5143E+01  8.8104E-03   '
               '3.5135E+01  0.000E+00  0.000E+00  0.000E+00  1.30007E+02  '
               '4.257E+00  9.028E+00  1.850E-03  8.946E-03 -1.352E-04\n',
               '-   1    4   49     1    49    3.5135E+01  8.8084E-03   '
               '3.5126E+01  0.000E+00  0.000E+00  0.000E+00  1.29707E+02  '
               '4.257E+00  9.026E+00  1.849E-03  8.942E-03 -1.333E-04\n',
               '-   1    4   50     1    50    3.5126E+01  8.8064E-03   '
               '3.5117E+01  0.000E+00  0.000E+00  0.000E+00  1.29406E+02  '
               '4.256E+00  9.024E+00  1.849E-03  8.938E-03 -1.314E-04\n',
               '-   1    4   51     1    51    3.5117E+01  8.8044E-03   '
               '3.5108E+01  0.000E+00  0.000E+00  0.000E+00  1.29106E+02  '
               '4.256E+00  9.023E+00  1.849E-03  8.934E-03 -1.295E-04\n',
               '-   1    4   52     1    52    3.5108E+01  8.8024E-03   '
               '3.5099E+01  0.000E+00  0.000E+00  0.000E+00  1.28805E+02  '
               '4.255E+00  9.021E+00  1.849E-03  8.930E-03 -1.276E-04\n',
               '-   1    4   53     1    53    3.5099E+01  8.8004E-03   '
               '3.5091E+01  0.000E+00  0.000E+00  0.000E+00  1.28505E+02  '
               '4.255E+00  9.019E+00  1.848E-03  8.926E-03 -1.257E-04\n',
               '-   1    4   54     1    54    3.5091E+01  8.7984E-03   '
               '3.5082E+01  0.000E+00  0.000E+00  0.000E+00  1.28204E+02  '
               '4.254E+00  9.018E+00  1.848E-03  8.922E-03 -1.238E-04\n',
               '-   1    4   55     1    55    3.5082E+01  8.7964E-03   '
               '3.5073E+01  0.000E+00  0.000E+00  0.000E+00  1.27904E+02  '
               '4.254E+00  9.016E+00  1.848E-03  8.918E-03 -1.219E-04\n',
               '-   1    4   56     1    56    3.5073E+01  8.7944E-03   '
               '3.5064E+01  0.000E+00  0.000E+00  0.000E+00  1.27604E+02  '
               '4.254E+00  9.014E+00  1.848E-03  8.914E-03 -1.201E-04\n',
               '-   1    4   57     1    57    3.5064E+01  8.7924E-03   '
               '3.5055E+01  0.000E+00  0.000E+00  0.000E+00  1.27303E+02  '
               '4.253E+00  9.013E+00  1.847E-03  8.911E-03 -1.183E-04\n',
               '-   1    4   58     1    58    3.5055E+01  8.7904E-03   '
               '3.5047E+01  0.000E+00  0.000E+00  0.000E+00  1.27003E+02  '
               '4.253E+00  9.011E+00  1.847E-03  8.907E-03 -1.165E-04\n',
               '-   1    4   59     1    59    3.5047E+01  8.7884E-03   '
               '3.5038E+01  0.000E+00  0.000E+00  0.000E+00  1.26702E+02  '
               '4.252E+00  9.009E+00  1.847E-03  8.903E-03 -1.147E-04\n',
               '-   1    4   60     1    60    3.5038E+01  8.7864E-03   '
               '3.5029E+01  0.000E+00  0.000E+00  0.000E+00  1.26402E+02  '
               '4.252E+00  9.008E+00  1.847E-03  8.899E-03 -1.130E-04\n',
               '-   1    4   61     1    61    3.5029E+01  8.7844E-03   '
               '3.5020E+01  0.000E+00  0.000E+00  0.000E+00  1.26102E+02  '
               '4.252E+00  9.006E+00  1.846E-03  8.896E-03 -1.113E-04\n',
               '-   1    4   62     1    62    3.5020E+01  8.7824E-03   '
               '3.5012E+01  0.000E+00  0.000E+00  0.000E+00  1.25801E+02  '
               '4.251E+00  9.004E+00  1.846E-03  8.892E-03 -1.096E-04\n',
               '-   1    4   63     1    63    3.5012E+01  8.7804E-03   '
               '3.5003E+01  0.000E+00  0.000E+00  0.000E+00  1.25501E+02  '
               '4.251E+00  9.003E+00  1.846E-03  8.888E-03 -1.080E-04\n',
               '-   1    4   64     1    64    3.5003E+01  8.7784E-03   '
               '3.4994E+01  0.000E+00  0.000E+00  0.000E+00  1.25200E+02  '
               '4.250E+00  9.001E+00  1.846E-03  8.885E-03 -1.064E-04\n',
               '-   1    4   65     1    65    3.4994E+01  8.7764E-03   '
               '3.4985E+01  0.000E+00  0.000E+00  0.000E+00  1.24900E+02  '
               '4.250E+00  8.999E+00  1.845E-03  8.881E-03 -1.049E-04\n',
               '-   1    4   66     1    66    3.4985E+01  8.7744E-03   '
               '3.4976E+01  0.000E+00  0.000E+00  0.000E+00  1.24599E+02  '
               '4.249E+00  8.998E+00  1.845E-03  8.878E-03 -1.034E-04\n',
               '-   1    4   67     1    67    3.4976E+01  8.7724E-03   '
               '3.4968E+01  0.000E+00  0.000E+00  0.000E+00  1.24299E+02  '
               '4.249E+00  8.996E+00  1.845E-03  8.874E-03 -1.019E-04\n',
               '-   1    4   68     1    68    3.4968E+01  8.7704E-03   '
               '3.4959E+01  0.000E+00  0.000E+00  0.000E+00  1.23999E+02  '
               '4.249E+00  8.995E+00  1.845E-03  8.871E-03 -1.005E-04\n',
               '-   1    4   69     1    69    3.4959E+01  8.7684E-03   '
               '3.4950E+01  0.000E+00  0.000E+00  0.000E+00  1.23698E+02  '
               '4.248E+00  8.993E+00  1.844E-03  8.867E-03 -9.911E-05\n',
               '-   1    4   70     1    70    3.4950E+01  8.7664E-03   '
               '3.4941E+01  0.000E+00  0.000E+00  0.000E+00  1.23398E+02  '
               '4.248E+00  8.991E+00  1.844E-03  8.864E-03 -9.774E-05\n',
               '-   1    4   71     1    71    3.4941E+01  8.7644E-03   '
               '3.4933E+01  0.000E+00  0.000E+00  0.000E+00  1.23097E+02  '
               '4.247E+00  8.990E+00  1.844E-03  8.861E-03 -9.640E-05\n',
               '-   1    4   72     1    72    3.4933E+01  8.7624E-03   '
               '3.4924E+01  0.000E+00  0.000E+00  0.000E+00  1.22797E+02  '
               '4.247E+00  8.988E+00  1.843E-03  8.857E-03 -9.505E-05\n',
               '-   1    4   73     1    73    3.4924E+01  8.7604E-03   '
               '3.4915E+01  0.000E+00  0.000E+00  0.000E+00  1.22497E+02  '
               '4.247E+00  8.986E+00  1.843E-03  8.854E-03 -9.370E-05\n',
               '-   1    4   74     1    74    3.4915E+01  8.7584E-03   '
               '3.4906E+01  0.000E+00  0.000E+00  0.000E+00  1.22196E+02  '
               '4.246E+00  8.985E+00  1.843E-03  8.851E-03 -9.233E-05\n',
               '-   1    4   75     1    75    3.4906E+01  8.7564E-03   '
               '3.4898E+01  0.000E+00  0.000E+00  0.000E+00  1.21896E+02  '
               '4.246E+00  8.983E+00  1.843E-03  8.847E-03 -9.091E-05\n',
               '-   1    4   76     1    76    3.4898E+01  8.7544E-03   '
               '3.4889E+01  0.000E+00  0.000E+00  0.000E+00  1.21595E+02  '
               '4.245E+00  8.981E+00  1.842E-03  8.844E-03 -8.942E-05\n',
               '-   1    4   77     1    77    3.4889E+01  8.7524E-03   '
               '3.4880E+01  0.000E+00  0.000E+00  0.000E+00  1.21295E+02  '
               '4.245E+00  8.980E+00  1.842E-03  8.840E-03 -8.784E-05\n',
               '-   1    4   78     1    78    3.4880E+01  8.7504E-03   '
               '3.4871E+01  0.000E+00  0.000E+00  0.000E+00  1.20994E+02  '
               '4.244E+00  8.978E+00  1.842E-03  8.836E-03 -8.612E-05\n',
               '-   1    4   79     1    79    3.4871E+01  8.7484E-03   '
               '3.4863E+01  0.000E+00  0.000E+00  0.000E+00  1.20694E+02  '
               '4.244E+00  8.976E+00  1.842E-03  8.833E-03 -8.425E-05\n',
               '-   1    4   80     1    80    3.4863E+01  8.7464E-03   '
               '3.4854E+01  0.000E+00  0.000E+00  0.000E+00  1.20394E+02  '
               '4.244E+00  8.975E+00  1.841E-03  8.829E-03 -8.216E-05\n',
               '-   1    4   81     1    81    3.4854E+01  8.7444E-03   '
               '3.4845E+01  0.000E+00  0.000E+00  0.000E+00  1.20093E+02  '
               '4.243E+00  8.973E+00  1.841E-03  8.824E-03 -7.983E-05\n',
               '-   1    4   82     1    82    3.4845E+01  8.7424E-03   '
               '3.4836E+01  0.000E+00  0.000E+00  0.000E+00  1.19793E+02  '
               '4.243E+00  8.971E+00  1.841E-03  8.820E-03 -7.719E-05\n',
               '-   1    4   83     1    83    3.4836E+01  8.7404E-03   '
               '3.4828E+01  0.000E+00  0.000E+00  0.000E+00  1.19492E+02  '
               '4.242E+00  8.970E+00  1.841E-03  8.815E-03 -7.422E-05\n',
               '-   1    4   84     1    84    3.4828E+01  8.7384E-03   '
               '3.4819E+01  0.000E+00  0.000E+00  0.000E+00  1.19192E+02  '
               '4.242E+00  8.968E+00  1.840E-03  8.809E-03 -7.087E-05\n',
               '-   1    4   85     1    85    3.4819E+01  8.7364E-03   '
               '3.4810E+01  0.000E+00  0.000E+00  0.000E+00  1.18892E+02  '
               '4.242E+00  8.966E+00  1.840E-03  8.803E-03 -6.709E-05\n',
               '-   1    4   86     1    86    3.4810E+01  8.7344E-03   '
               '3.4801E+01  0.000E+00  0.000E+00  0.000E+00  1.18591E+02  '
               '4.241E+00  8.965E+00  1.840E-03  8.797E-03 -6.287E-05\n',
               '-   1    4   87     1    87    3.4801E+01  8.7324E-03   '
               '3.4793E+01  0.000E+00  0.000E+00  0.000E+00  1.18291E+02  '
               '4.241E+00  8.963E+00  1.840E-03  8.791E-03 -5.819E-05\n',
               '-   1    4   88     1    88    3.4793E+01  8.7304E-03   '
               '3.4784E+01  0.000E+00  0.000E+00  0.000E+00  1.17990E+02  '
               '4.240E+00  8.961E+00  1.839E-03  8.783E-03 -5.306E-05\n',
               '-   1    4   89     1    89    3.4784E+01  8.7284E-03   '
               '3.4775E+01  0.000E+00  0.000E+00  0.000E+00  1.17690E+02  '
               '4.240E+00  8.960E+00  1.839E-03  8.776E-03 -4.753E-05\n',
               '-   1    4   90     1    90    3.4775E+01  8.7264E-03   '
               '3.4766E+01  0.000E+00  0.000E+00  0.000E+00  1.17389E+02  '
               '4.239E+00  8.958E+00  1.839E-03  8.768E-03 -4.166E-05\n',
               '-   1    4   91     1    91    3.4766E+01  8.7244E-03   '
               '3.4758E+01  0.000E+00  0.000E+00  0.000E+00  1.17089E+02  '
               '4.239E+00  8.956E+00  1.839E-03  8.760E-03 -3.558E-05\n',
               '-   1    4   92     1    92    3.4758E+01  8.7224E-03   '
               '3.4749E+01  0.000E+00  0.000E+00  0.000E+00  1.16789E+02  '
               '4.239E+00  8.955E+00  1.838E-03  8.752E-03 -2.944E-05\n',
               '-   1    4   93     1    93    3.4749E+01  8.7205E-03   '
               '3.4740E+01  0.000E+00  0.000E+00  0.000E+00  1.16488E+02  '
               '4.238E+00  8.953E+00  1.838E-03  8.744E-03 -2.344E-05\n',
               '-   1    4   94     1    94    3.4740E+01  8.7185E-03   '
               '3.4732E+01  0.000E+00  0.000E+00  0.000E+00  1.16188E+02  '
               '4.238E+00  8.951E+00  1.838E-03  8.736E-03 -1.780E-05\n',
               '-   1    4   95     1    95    3.4732E+01  8.7165E-03   '
               '3.4723E+01  0.000E+00  0.000E+00  0.000E+00  1.15887E+02  '
               '4.237E+00  8.950E+00  1.837E-03  8.729E-03 -1.274E-05\n',
               '-   1    4   96     1    96    3.4723E+01  8.7145E-03   '
               '3.4714E+01  0.000E+00  0.000E+00  0.000E+00  1.15587E+02  '
               '4.237E+00  8.948E+00  1.837E-03  8.723E-03 -8.466E-06\n',
               '-   1    4   97     1    97    3.4714E+01  8.7125E-03   '
               '3.4705E+01  0.000E+00  0.000E+00  0.000E+00  1.15287E+02  '
               '4.237E+00  8.946E+00  1.837E-03  8.718E-03 -5.115E-06\n',
               '-   1    4   98     1    98    3.4705E+01  8.7105E-03   '
               '3.4697E+01  0.000E+00  0.000E+00  0.000E+00  1.14986E+02  '
               '4.236E+00  8.945E+00  1.837E-03  8.713E-03 -2.713E-06\n',
               '-   1    4   99     1    99    3.4697E+01  8.7085E-03   '
               '3.4688E+01  0.000E+00  0.000E+00  0.000E+00  1.14686E+02  '
               '4.236E+00  8.943E+00  1.836E-03  8.710E-03 -1.118E-06\n',
               '-   1    4  100     1   100    3.4688E+01  8.7065E-03   '
               '3.4679E+01  0.000E+00  0.000E+00  0.000E+00  1.14385E+02  '
               '4.235E+00  8.941E+00  1.836E-03  0.000E+00  0.000E+00\n',
               '-\n',
               '-\n',
               '-\n',
               '-1\n',
               '-  VOLUMETRIC BUDGET FOR UNSATURATED ZONE BENEATH STREAMS AT '
               'END OF TIME STEP    30 STRESS PERIOD  20\n',
               '-  '
               '------------------------------------------------------------------------------------------------\n',
               '-\n',
               '-    CUMULATIVE VOLUMES             L**3    RATES FOR THIS '
               'TIME STEP         L**3/T\n',
               '-    ------------------                     '
               '------------------------\n',
               '-\n',
               '-\n',
               '-          STREAM LOSS =     25250942.0000            STREAM '
               'LOSS =            0.8806\n',
               '-    CHANGE IN STORAGE =       959951.0625      CHANGE IN '
               'STORAGE =       -1.2260E-02\n',
               '-       RECHARGE TO GW =     24294564.0000         RECHARGE TO '
               'GW =            0.8928\n',
               '-\n',
               '-             TOTAL IN =     25250942.0000               TOTAL '
               'IN =            0.8928\n',
               '-\n',
               '-            TOTAL OUT =     25254516.0000              TOTAL '
               'OUT =            0.8928\n',
               '-\n',
               '-             IN - OUT =        -3574.0000               IN - '
               'OUT =        1.1921E-07\n',
               '-\n',
               '-  PERCENT DISCREPANCY =           -0.00      PERCENT '
               'DISCREPANCY =             0.00\n',
               '-\n',
               '-\n',
               '-\n',
               '-1\n',
               '-              HEAD IN LAYER   1 AT END OF TIME STEP  30 IN '
               'STRESS PERIOD   20\n',
               '-  '
               '---------------------------------------------------------------------------\n',
               '-\n',
               '-          1      2      3      4      5      6      7      '
               '8      9     10\n',
               '-         11     12     13     14     15     16     17     '
               '18     19     20\n',
               '-         21     22     23     24     25     26     27     '
               '28     29     30\n',
               '-         31     32     33     34     35     36     37     '
               '38     39     40\n',
               '-         41     42     43     44     45     46     47     '
               '48     49     50\n',
               '-         51     52     53     54     55     56     57     '
               '58     59     60\n',
               '-         61     62     63     64     65     66     67     '
               '68     69     70\n',
               '-         71     72     73     74     75     76     77     '
               '78     79     80\n',
               '-         81     82     83     84     85     86     87     '
               '88     89     90\n',
               '-         91     92     93     94     95     96     97     '
               '98     99    100\n',
               '- '
               '.........................................................................\n',
               '-   1   114.0  114.0  114.0  114.0  114.0  114.0  114.0  '
               '114.0  114.0  114.0\n',
               '-       113.9  113.9  113.9  113.9  113.9  113.8  113.8  '
               '113.8  113.8  113.7\n',
               '-       113.7  113.7  113.6  113.6  113.5  113.5  113.4  '
               '113.4  113.3  113.3\n',
               '-       113.2  113.1  113.0  113.0  112.9  112.8  112.7  '
               '112.6  112.4  112.3\n',
               '-       112.2  112.1  111.9  111.8  111.6  111.4  111.3  '
               '111.1  110.9  110.7\n',
               '-       110.4  110.2  110.0  109.7  109.5  109.2  108.9  '
               '108.6  108.3  107.9\n',
               '-       107.6  107.2  106.8  106.4  106.0  105.6  105.2  '
               '104.7  104.2  103.7\n',
               '-       103.2  102.7  102.1  101.5  100.9  100.3   99.6   '
               '99.0   98.3   97.5\n',
               '-        96.8   96.0   95.2   94.4   93.5   92.6   91.7   '
               '90.7   89.7   88.6\n',
               '-        87.5   86.4   85.2   83.9   82.6   81.2   79.8   '
               '78.3   76.7   75.0\n',
               '-   2   114.0  114.0  114.0  114.0  114.0  114.0  114.0  '
               '114.0  114.0  114.0\n',
               '-       113.9  113.9  113.9  113.9  113.9  113.9  113.8  '
               '113.8  113.8  113.7\n',
               '-       113.7  113.7  113.6  113.6  113.5  113.5  113.4  '
               '113.4  113.3  113.3\n',
               '-       113.2  113.1  113.0  113.0  112.9  112.8  112.7  '
               '112.6  112.4  112.3\n',
               '-       112.2  112.1  111.9  111.8  111.6  111.4  111.3  '
               '111.1  110.9  110.7\n',
               '-       110.4  110.2  110.0  109.7  109.5  109.2  108.9  '
               '108.6  108.3  107.9\n',
               '-       107.6  107.2  106.8  106.5  106.0  105.6  105.2  '
               '104.7  104.2  103.7\n',
               '-       103.2  102.7  102.1  101.5  100.9  100.3   99.6   '
               '99.0   98.3   97.6\n',
               '-        96.8   96.0   95.2   94.4   93.5   92.6   91.7   '
               '90.7   89.7   88.6\n',
               '-        87.5   86.4   85.2   83.9   82.6   81.2   79.8   '
               '78.3   76.7   75.0\n',
               '-   3   114.0  114.0  114.0  114.0  114.0  114.0  114.0  '
               '114.0  114.0  114.0\n',
               '-       114.0  113.9  113.9  113.9  113.9  113.9  113.8  '
               '113.8  113.8  113.8\n',
               '-       113.7  113.7  113.6  113.6  113.6  113.5  113.5  '
               '113.4  113.3  113.3\n',
               '-       113.2  113.1  113.1  113.0  112.9  112.8  112.7  '
               '112.6  112.5  112.3\n',
               '-       112.2  112.1  111.9  111.8  111.6  111.5  111.3  '
               '111.1  110.9  110.7\n',
               '-       110.5  110.2  110.0  109.7  109.5  109.2  108.9  '
               '108.6  108.3  108.0\n',
               '-       107.6  107.2  106.9  106.5  106.1  105.6  105.2  '
               '104.7  104.2  103.7\n',
               '-       103.2  102.7  102.1  101.5  100.9  100.3   99.7   '
               '99.0   98.3   97.6\n',
               '-        96.8   96.0   95.2   94.4   93.5   92.6   91.7   '
               '90.7   89.7   88.6\n',
               '-        87.5   86.4   85.2   83.9   82.6   81.3   79.8   '
               '78.3   76.7   75.0\n',
               '-   4   114.0  114.0  114.0  114.0  114.0  114.0  114.0  '
               '114.0  114.0  114.0\n',
               '-       114.0  114.0  113.9  113.9  113.9  113.9  113.9  '
               '113.8  113.8  113.8\n',
               '-       113.7  113.7  113.7  113.6  113.6  113.5  113.5  '
               '113.4  113.4  113.3\n',
               '-       113.2  113.2  113.1  113.0  112.9  112.8  112.7  '
               '112.6  112.5  112.4\n',
               '-       112.2  112.1  112.0  111.8  111.6  111.5  111.3  '
               '111.1  110.9  110.7\n',
               '-       110.5  110.3  110.0  109.8  109.5  109.2  108.9  '
               '108.6  108.3  108.0\n',
               '-       107.6  107.3  106.9  106.5  106.1  105.6  105.2  '
               '104.7  104.3  103.8\n',
               '-       103.2  102.7  102.1  101.6  101.0  100.3   99.7   '
               '99.0   98.3   97.6\n',
               '-        96.8   96.1   95.3   94.4   93.5   92.6   91.7   '
               '90.7   89.7   88.7\n',
               '-        87.6   86.4   85.2   84.0   82.7   81.3   79.8   '
               '78.3   76.7   75.0\n',
               '-   5   114.0  114.0  114.0  114.0  114.0  114.0  114.0  '
               '114.0  114.0  114.0\n',
               '-       114.0  113.9  113.9  113.9  113.9  113.9  113.8  '
               '113.8  113.8  113.8\n',
               '-       113.7  113.7  113.6  113.6  113.6  113.5  113.5  '
               '113.4  113.3  113.3\n',
               '-       113.2  113.1  113.1  113.0  112.9  112.8  112.7  '
               '112.6  112.5  112.3\n',
               '-       112.2  112.1  111.9  111.8  111.6  111.5  111.3  '
               '111.1  110.9  110.7\n',
               '-       110.5  110.2  110.0  109.7  109.5  109.2  108.9  '
               '108.6  108.3  108.0\n',
               '-       107.6  107.2  106.9  106.5  106.1  105.6  105.2  '
               '104.7  104.2  103.7\n',
               '-       103.2  102.7  102.1  101.5  100.9  100.3   99.7   '
               '99.0   98.3   97.6\n',
               '-        96.8   96.0   95.2   94.4   93.5   92.6   91.7   '
               '90.7   89.7   88.6\n',
               '-        87.5   86.4   85.2   83.9   82.6   81.3   79.8   '
               '78.3   76.7   75.0\n',
               '-   6   114.0  114.0  114.0  114.0  114.0  114.0  114.0  '
               '114.0  114.0  114.0\n',
               '-       113.9  113.9  113.9  113.9  113.9  113.9  113.8  '
               '113.8  113.8  113.7\n',
               '-       113.7  113.7  113.6  113.6  113.5  113.5  113.4  '
               '113.4  113.3  113.3\n',
               '-       113.2  113.1  113.0  113.0  112.9  112.8  112.7  '
               '112.6  112.4  112.3\n',
               '-       112.2  112.1  111.9  111.8  111.6  111.4  111.3  '
               '111.1  110.9  110.7\n',
               '-       110.4  110.2  110.0  109.7  109.5  109.2  108.9  '
               '108.6  108.3  107.9\n',
               '-       107.6  107.2  106.8  106.5  106.0  105.6  105.2  '
               '104.7  104.2  103.7\n',
               '-       103.2  102.7  102.1  101.5  100.9  100.3   99.6   '
               '99.0   98.3   97.6\n',
               '-        96.8   96.0   95.2   94.4   93.5   92.6   91.7   '
               '90.7   89.7   88.6\n',
               '-        87.5   86.4   85.2   83.9   82.6   81.2   79.8   '
               '78.3   76.7   75.0\n',
               '-   7   114.0  114.0  114.0  114.0  114.0  114.0  114.0  '
               '114.0  114.0  114.0\n',
               '-       113.9  113.9  113.9  113.9  113.9  113.8  113.8  '
               '113.8  113.8  113.7\n',
               '-       113.7  113.7  113.6  113.6  113.5  113.5  113.4  '
               '113.4  113.3  113.3\n',
               '-       113.2  113.1  113.0  113.0  112.9  112.8  112.7  '
               '112.6  112.4  112.3\n',
               '-       112.2  112.1  111.9  111.8  111.6  111.4  111.3  '
               '111.1  110.9  110.7\n',
               '-       110.4  110.2  110.0  109.7  109.5  109.2  108.9  '
               '108.6  108.3  107.9\n',
               '-       107.6  107.2  106.8  106.4  106.0  105.6  105.2  '
               '104.7  104.2  103.7\n',
               '-       103.2  102.7  102.1  101.5  100.9  100.3   99.6   '
               '99.0   98.3   97.5\n',
               '-        96.8   96.0   95.2   94.4   93.5   92.6   91.7   '
               '90.7   89.7   88.6\n',
               '-        87.5   86.4   85.2   83.9   82.6   81.2   79.8   '
               '78.3   76.7   75.0\n',
               '-1\n',
               '-  VOLUMETRIC BUDGET FOR ENTIRE MODEL AT END OF TIME STEP   '
               '30, STRESS PERIOD  20\n',
               '-  '
               '------------------------------------------------------------------------------\n',
               '-\n',
               '-     CUMULATIVE VOLUMES      L**3       RATES FOR THIS TIME '
               'STEP      L**3/T\n',
               '-     ------------------                 '
               '------------------------\n',
               '-\n',
               '-           IN:                                      IN:\n',
               '-           ---                                      ---\n',
               '-             STORAGE =    10162151.0000               STORAGE '
               '=           0.0000\n',
               '-       CONSTANT HEAD =           0.0000         CONSTANT HEAD '
               '=           0.0000\n',
               '-     HEAD DEP BOUNDS =           0.0000       HEAD DEP BOUNDS '
               '=           0.0000\n',
               '-      STREAM LEAKAGE =    24294612.0000        STREAM LEAKAGE '
               '=           0.8928\n',
               '-\n',
               '-            TOTAL IN =    34456764.0000              TOTAL IN '
               '=           0.8928\n',
               '-\n',
               '-          OUT:                                     OUT:\n',
               '-          ----                                     ----\n',
               '-             STORAGE =    14826906.0000               STORAGE '
               '=           0.5793\n',
               '-       CONSTANT HEAD =           0.0000         CONSTANT HEAD '
               '=           0.0000\n',
               '-     HEAD DEP BOUNDS =    19629776.0000       HEAD DEP BOUNDS '
               '=           0.3134\n',
               '-      STREAM LEAKAGE =           0.0000        STREAM LEAKAGE '
               '=           0.0000\n',
               '-\n',
               '-           TOTAL OUT =    34456680.0000             TOTAL OUT '
               '=           0.8927\n',
               '-\n',
               '-            IN - OUT =          84.0000              IN - OUT '
               '=       1.0842E-04\n',
               '-\n',
               '- PERCENT DISCREPANCY =           0.00     PERCENT DISCREPANCY '
               '=           0.01\n',
               '-\n',
               '-\n',
               '-\n',
               '-\n',
               '-\n',
               '-\n',
               '-         TIME SUMMARY AT END OF TIME STEP   30 IN STRESS '
               'PERIOD   20\n',
               '-                    SECONDS     MINUTES      HOURS       '
               'DAYS        YEARS\n',
               '-                    '
               '-----------------------------------------------------------\n',
               '-   TIME STEP LENGTH 2.49961E+05  4166.0      69.434      '
               '2.8931     7.92080E-03\n',
               '- STRESS PERIOD TIME 2.59200E+06  43200.      720.00      '
               '30.000     8.21355E-02\n',
               '-         TOTAL TIME 5.18400E+07 8.63999E+05  14400.      '
               '600.00      1.6427    \n',
               '-1\n',
               '-1\n',
               '-                            STRESS PERIOD NO.   21, LENGTH '
               '=   2592000.    \n',
               '-                            '
               '-----------------------------------------------\n',
               '-\n',
               '-                              NUMBER OF TIME STEPS =    30\n',
               '-\n',
               '-                               MULTIPLIER FOR DELT =     '
               '1.100\n',
               '-\n',
               '-                            INITIAL TIME STEP SIZE =   '
               '15757.40    \n',
               '-\n',
               '- REUSING NON-PARAMETER GHB CELLS FROM LAST STRESS PERIOD\n',
               '-\n',
               '-      7 GHB CELLS\n',
               '- \n',
               '- SOLVING FOR HEAD \n',
               '-\n',
               '- NO OUTPUT CONTROL FOR STRESS PERIOD   21   TIME STEP    1\n',
               '- \n',
               '- SOLVING FOR HEAD \n',
               '-\n',
               '- NO OUTPUT CONTROL FOR STRESS PERIOD   21   TIME STEP    2\n',
               '- \n',
               '- SOLVING FOR HEAD \n',
               '-\n',
               '- NO OUTPUT CONTROL FOR STRESS PERIOD   21   TIME STEP    3\n',
               '- \n',
               '- SOLVING FOR HEAD \n',
               '-\n',
               '- NO OUTPUT CONTROL FOR STRESS PERIOD   21   TIME STEP    4\n',
               '- \n',
               '- SOLVING FOR HEAD \n',
               '-\n',
               '- NO OUTPUT CONTROL FOR STRESS PERIOD   21   TIME STEP    5\n',
               '- \n',
               '- SOLVING FOR HEAD \n',
               '-\n',
               '- NO OUTPUT CONTROL FOR STRESS PERIOD   21   TIME STEP    6\n',
               '- \n',
               '- SOLVING FOR HEAD \n',
               '-\n',
               '- NO OUTPUT CONTROL FOR STRESS PERIOD   21   TIME STEP    7\n',
               '- \n',
               '- SOLVING FOR HEAD \n',
               '-\n',
               '- NO OUTPUT CONTROL FOR STRESS PERIOD   21   TIME STEP    8\n',
               '- \n',
               '- SOLVING FOR HEAD \n',
               '-\n',
               '- NO OUTPUT CONTROL FOR STRESS PERIOD   21   TIME STEP    9\n',
               '- \n',
               '- SOLVING FOR HEAD \n',
               '-\n',
               '- NO OUTPUT CONTROL FOR STRESS PERIOD   21   TIME STEP   10\n',
               '- \n',
               '- SOLVING FOR HEAD \n',
               '-\n',
               '- NO OUTPUT CONTROL FOR STRESS PERIOD   21   TIME STEP   11\n',
               '- \n',
               '- SOLVING FOR HEAD \n',
               '-\n',
               '- NO OUTPUT CONTROL FOR STRESS PERIOD   21   TIME STEP   12\n',
               '- \n',
               '- SOLVING FOR HEAD \n',
               '-\n',
               '- NO OUTPUT CONTROL FOR STRESS PERIOD   21   TIME STEP   13\n',
               '- \n',
               '- SOLVING FOR HEAD \n',
               '-\n',
               '- NO OUTPUT CONTROL FOR STRESS PERIOD   21   TIME STEP   14\n',
               '- \n',
               '- SOLVING FOR HEAD \n',
               '-\n',
               '- NO OUTPUT CONTROL FOR STRESS PERIOD   21   TIME STEP   15\n',
               '- \n',
               '- SOLVING FOR HEAD \n',
               '-\n',
               '- NO OUTPUT CONTROL FOR STRESS PERIOD   21   TIME STEP   16\n',
               '- \n',
               '- SOLVING FOR HEAD \n',
               '-\n',
               '- NO OUTPUT CONTROL FOR STRESS PERIOD   21   TIME STEP   17\n',
               '- \n',
               '- SOLVING FOR HEAD \n',
               '-\n',
               '- NO OUTPUT CONTROL FOR STRESS PERIOD   21   TIME STEP   18\n',
               '- \n',
               '- SOLVING FOR HEAD \n',
               '-\n',
               '- NO OUTPUT CONTROL FOR STRESS PERIOD   21   TIME STEP   19\n',
               '- \n',
               '- SOLVING FOR HEAD \n',
               '-\n',
               '- NO OUTPUT CONTROL FOR STRESS PERIOD   21   TIME STEP   20\n',
               '- \n',
               '- SOLVING FOR HEAD \n',
               '-\n',
               '- NO OUTPUT CONTROL FOR STRESS PERIOD   21   TIME STEP   21\n',
               '- \n',
               '- SOLVING FOR HEAD \n',
               '-\n',
               '- NO OUTPUT CONTROL FOR STRESS PERIOD   21   TIME STEP   22\n',
               '- \n',
               '- SOLVING FOR HEAD \n',
               '-\n',
               '- NO OUTPUT CONTROL FOR STRESS PERIOD   21   TIME STEP   23\n',
               '- \n',
               '- SOLVING FOR HEAD \n',
               '-\n',
               '- NO OUTPUT CONTROL FOR STRESS PERIOD   21   TIME STEP   24\n',
               '- \n',
               '- SOLVING FOR HEAD \n',
               '-\n',
               '- NO OUTPUT CONTROL FOR STRESS PERIOD   21   TIME STEP   25\n',
               '- \n',
               '- SOLVING FOR HEAD \n',
               '-\n',
               '- NO OUTPUT CONTROL FOR STRESS PERIOD   21   TIME STEP   26\n',
               '- \n',
               '- SOLVING FOR HEAD \n',
               '-\n',
               '- NO OUTPUT CONTROL FOR STRESS PERIOD   21   TIME STEP   27\n',
               '- \n',
               '- SOLVING FOR HEAD \n',
               '-\n',
               '- NO OUTPUT CONTROL FOR STRESS PERIOD   21   TIME STEP   28\n',
               '- \n',
               '- SOLVING FOR HEAD \n',
               '-\n',
               '- NO OUTPUT CONTROL FOR STRESS PERIOD   21   TIME STEP   29\n',
               '- \n',
               '- SOLVING FOR HEAD \n',
               '-\n',
               '- NO OUTPUT CONTROL FOR STRESS PERIOD   21   TIME STEP   30\n',
               '-\n',
               '-\n',
               '-\n',
               '- STREAM LISTING     PERIOD     21   STEP       30\n',
               '-\n',
               '- LAYER ROW COL. STREAM  RCH.   FLOW INTO    STREAM     FLOW '
               'OUT OF   OVRLND.    DIRECT     STREAM      STREAM      '
               'STREAM     STREAM  STREAMBED   FLOW TO   CHNG. UNSAT. \n',
               '-                SEG.NO.  NO.   STRM. RCH.    LOSS       STRM. '
               'RCH.   RUNOFF     PRECIP       ET         HEAD        '
               'DEPTH      WIDTH  CONDCTNC.   WAT. TAB.\n',
               '-\n',
               '-   1    4    1     1     1    1.2630E+01  3.5917E-03   '
               '1.2626E+01  0.000E+00  0.000E+00  0.000E+00  1.42556E+02  '
               '2.706E+00  5.051E+00  1.117E-03  4.018E-03 -4.261E-04\n',
               '-   1    4    2     1     2    1.2626E+01  3.5908E-03   '
               '1.2623E+01  0.000E+00  0.000E+00  0.000E+00  1.42256E+02  '
               '2.706E+00  5.050E+00  1.117E-03  4.007E-03 -4.159E-04\n',
               '-   1    4    3     1     3    1.2623E+01  3.5900E-03   '
               '1.2619E+01  0.000E+00  0.000E+00  0.000E+00  1.41956E+02  '
               '2.706E+00  5.050E+00  1.117E-03  4.005E-03 -4.155E-04\n',
               '-   1    4    4     1     4    1.2619E+01  3.5892E-03   '
               '1.2616E+01  0.000E+00  0.000E+00  0.000E+00  1.41655E+02  '
               '2.705E+00  5.049E+00  1.116E-03  4.004E-03 -4.151E-04\n',
               '-   1    4    5     1     5    1.2616E+01  3.5883E-03   '
               '1.2612E+01  0.000E+00  0.000E+00  0.000E+00  1.41355E+02  '
               '2.705E+00  5.049E+00  1.116E-03  4.003E-03 -4.147E-04\n',
               '-   1    4    6     1     6    1.2612E+01  3.5875E-03   '
               '1.2608E+01  0.000E+00  0.000E+00  0.000E+00  1.41055E+02  '
               '2.705E+00  5.048E+00  1.116E-03  4.002E-03 -4.142E-04\n',
               '-   1    4    7     1     7    1.2608E+01  3.5867E-03   '
               '1.2605E+01  0.000E+00  0.000E+00  0.000E+00  1.40754E+02  '
               '2.704E+00  5.048E+00  1.116E-03  4.000E-03 -4.137E-04\n',
               '-   1    4    8     1     8    1.2605E+01  3.5858E-03   '
               '1.2601E+01  0.000E+00  0.000E+00  0.000E+00  1.40454E+02  '
               '2.704E+00  5.047E+00  1.116E-03  3.999E-03 -4.141E-04\n',
               '-   1    4    9     1     9    1.2601E+01  3.5850E-03   '
               '1.2598E+01  0.000E+00  0.000E+00  0.000E+00  1.40153E+02  '
               '2.703E+00  5.047E+00  1.116E-03  3.993E-03 -4.083E-04\n',
               '-   1    4   10     1    10    1.2598E+01  3.5842E-03   '
               '1.2594E+01  0.000E+00  0.000E+00  0.000E+00  1.39853E+02  '
               '2.703E+00  5.046E+00  1.116E-03  3.987E-03 -4.024E-04\n',
               '-   1    4   11     1    11    1.2594E+01  3.5834E-03   '
               '1.2590E+01  0.000E+00  0.000E+00  0.000E+00  1.39553E+02  '
               '2.703E+00  5.046E+00  1.116E-03  3.980E-03 -3.965E-04\n',
               '-   1    4   12     1    12    1.2590E+01  3.5825E-03   '
               '1.2587E+01  0.000E+00  0.000E+00  0.000E+00  1.39252E+02  '
               '2.702E+00  5.046E+00  1.115E-03  3.973E-03 -3.906E-04\n',
               '-   1    4   13     1    13    1.2587E+01  3.5817E-03   '
               '1.2583E+01  0.000E+00  0.000E+00  0.000E+00  1.38952E+02  '
               '2.702E+00  5.045E+00  1.115E-03  3.966E-03 -3.847E-04\n',
               '-   1    4   14     1    14    1.2583E+01  3.5809E-03   '
               '1.2580E+01  0.000E+00  0.000E+00  0.000E+00  1.38651E+02  '
               '2.701E+00  5.045E+00  1.115E-03  3.960E-03 -3.788E-04\n',
               '-   1    4   15     1    15    1.2580E+01  3.5800E-03   '
               '1.2576E+01  0.000E+00  0.000E+00  0.000E+00  1.38351E+02  '
               '2.701E+00  5.044E+00  1.115E-03  3.953E-03 -3.729E-04\n',
               '-   1    4   16     1    16    1.2576E+01  3.5792E-03   '
               '1.2573E+01  0.000E+00  0.000E+00  0.000E+00  1.38051E+02  '
               '2.701E+00  5.044E+00  1.115E-03  3.946E-03 -3.670E-04\n',
               '-   1    4   17     1    17    1.2573E+01  3.5784E-03   '
               '1.2569E+01  0.000E+00  0.000E+00  0.000E+00  1.37750E+02  '
               '2.700E+00  5.043E+00  1.115E-03  3.940E-03 -3.611E-04\n',
               '-   1    4   18     1    18    1.2569E+01  3.5775E-03   '
               '1.2565E+01  0.000E+00  0.000E+00  0.000E+00  1.37450E+02  '
               '2.700E+00  5.043E+00  1.115E-03  3.936E-03 -3.587E-04\n',
               '-   1    4   19     1    19    1.2565E+01  3.5767E-03   '
               '1.2562E+01  0.000E+00  0.000E+00  0.000E+00  1.37150E+02  '
               '2.700E+00  5.042E+00  1.115E-03  3.935E-03 -3.578E-04\n',
               '-   1    4   20     1    20    1.2562E+01  3.5759E-03   '
               '1.2558E+01  0.000E+00  0.000E+00  0.000E+00  1.36849E+02  '
               '2.699E+00  5.042E+00  1.114E-03  3.933E-03 -3.568E-04\n',
               '-   1    4   21     1    21    1.2558E+01  3.5751E-03   '
               '1.2555E+01  0.000E+00  0.000E+00  0.000E+00  1.36549E+02  '
               '2.699E+00  5.041E+00  1.114E-03  3.931E-03 -3.558E-04\n',
               '-   1    4   22     1    22    1.2555E+01  3.5742E-03   '
               '1.2551E+01  0.000E+00  0.000E+00  0.000E+00  1.36248E+02  '
               '2.698E+00  5.041E+00  1.114E-03  3.929E-03 -3.548E-04\n',
               '-   1    4   23     1    23    1.2551E+01  3.5734E-03   '
               '1.2548E+01  0.000E+00  0.000E+00  0.000E+00  1.35948E+02  '
               '2.698E+00  5.040E+00  1.114E-03  3.927E-03 -3.537E-04\n',
               '-   1    4   24     1    24    1.2548E+01  3.5726E-03   '
               '1.2544E+01  0.000E+00  0.000E+00  0.000E+00  1.35648E+02  '
               '2.698E+00  5.040E+00  1.114E-03  3.925E-03 -3.526E-04\n',
               '-   1    4   25     1    25    1.2544E+01  3.5717E-03   '
               '1.2540E+01  0.000E+00  0.000E+00  0.000E+00  1.35347E+02  '
               '2.697E+00  5.040E+00  1.114E-03  3.923E-03 -3.514E-04\n',
               '-   1    4   26     1    26    1.2540E+01  3.5709E-03   '
               '1.2537E+01  0.000E+00  0.000E+00  0.000E+00  1.35047E+02  '
               '2.697E+00  5.039E+00  1.114E-03  3.919E-03 -3.480E-04\n',
               '-   1    4   27     1    27    1.2537E+01  3.5701E-03   '
               '1.2533E+01  0.000E+00  0.000E+00  0.000E+00  1.34746E+02  '
               '2.696E+00  5.039E+00  1.114E-03  3.909E-03 -3.387E-04\n',
               '-   1    4   28     1    28    1.2533E+01  3.5693E-03   '
               '1.2530E+01  0.000E+00  0.000E+00  0.000E+00  1.34446E+02  '
               '2.696E+00  5.038E+00  1.113E-03  3.891E-03 -3.220E-04\n',
               '-   1    4   29     1    29    1.2530E+01  3.5684E-03   '
               '1.2526E+01  0.000E+00  0.000E+00  0.000E+00  1.34146E+02  '
               '2.696E+00  5.038E+00  1.113E-03  3.874E-03 -3.054E-04\n',
               '-   1    4   30     1    30    1.2526E+01  3.5676E-03   '
               '1.2523E+01  0.000E+00  0.000E+00  0.000E+00  1.33845E+02  '
               '2.695E+00  5.037E+00  1.113E-03  3.857E-03 -2.892E-04\n',
               '-   1    4   31     1    31    1.2523E+01  3.5668E-03   '
               '1.2519E+01  0.000E+00  0.000E+00  0.000E+00  1.33545E+02  '
               '2.695E+00  5.037E+00  1.113E-03  3.840E-03 -2.733E-04\n',
               '-   1    4   32     1    32    1.2519E+01  3.5659E-03   '
               '1.2515E+01  0.000E+00  0.000E+00  0.000E+00  1.33245E+02  '
               '2.695E+00  5.036E+00  1.113E-03  3.824E-03 -2.576E-04\n',
               '-   1    4   33     1    33    1.2515E+01  3.5651E-03   '
               '1.2512E+01  0.000E+00  0.000E+00  0.000E+00  1.32944E+02  '
               '2.694E+00  5.036E+00  1.113E-03  3.807E-03 -2.423E-04\n',
               '-   1    4   34     1    34    1.2512E+01  3.5643E-03   '
               '1.2508E+01  0.000E+00  0.000E+00  0.000E+00  1.32644E+02  '
               '2.694E+00  5.035E+00  1.113E-03  3.792E-03 -2.274E-04\n',
               '-   1    4   35     1    35    1.2508E+01  3.5635E-03   '
               '1.2505E+01  0.000E+00  0.000E+00  0.000E+00  1.32343E+02  '
               '2.693E+00  5.035E+00  1.113E-03  3.782E-03 -2.185E-04\n',
               '-   1    4   36     1    36    1.2505E+01  3.5626E-03   '
               '1.2501E+01  0.000E+00  0.000E+00  0.000E+00  1.32043E+02  '
               '2.693E+00  5.035E+00  1.112E-03  3.780E-03 -2.172E-04\n',
               '-   1    4   37     1    37    1.2501E+01  3.5618E-03   '
               '1.2498E+01  0.000E+00  0.000E+00  0.000E+00  1.31743E+02  '
               '2.693E+00  5.034E+00  1.112E-03  3.778E-03 -2.159E-04\n',
               '-   1    4   38     1    38    1.2498E+01  3.5610E-03   '
               '1.2494E+01  0.000E+00  0.000E+00  0.000E+00  1.31442E+02  '
               '2.692E+00  5.034E+00  1.112E-03  3.776E-03 -2.146E-04\n',
               '-   1    4   39     1    39    1.2494E+01  3.5602E-03   '
               '1.2490E+01  0.000E+00  0.000E+00  0.000E+00  1.31142E+02  '
               '2.692E+00  5.033E+00  1.112E-03  3.773E-03 -2.133E-04\n',
               '-   1    4   40     1    40    1.2490E+01  3.5593E-03   '
               '1.2487E+01  0.000E+00  0.000E+00  0.000E+00  1.30841E+02  '
               '2.691E+00  5.033E+00  1.112E-03  3.771E-03 -2.120E-04\n',
               '-   1    4   41     1    41    1.2487E+01  3.5585E-03   '
               '1.2483E+01  0.000E+00  0.000E+00  0.000E+00  1.30541E+02  '
               '2.691E+00  5.032E+00  1.112E-03  3.769E-03 -2.107E-04\n',
               '-   1    4   42     1    42    1.2483E+01  3.5577E-03   '
               '1.2480E+01  0.000E+00  0.000E+00  0.000E+00  1.30241E+02  '
               '2.691E+00  5.032E+00  1.112E-03  3.767E-03 -2.093E-04\n',
               '-   1    4   43     1    43    1.2480E+01  3.5569E-03   '
               '1.2476E+01  0.000E+00  0.000E+00  0.000E+00  1.29940E+02  '
               '2.690E+00  5.031E+00  1.112E-03  3.765E-03 -2.080E-04\n',
               '-   1    4   44     1    44    1.2476E+01  3.5560E-03   '
               '1.2473E+01  0.000E+00  0.000E+00  0.000E+00  1.29640E+02  '
               '2.690E+00  5.031E+00  1.111E-03  3.763E-03 -2.066E-04\n',
               '-   1    4   45     1    45    1.2473E+01  3.5552E-03   '
               '1.2469E+01  0.000E+00  0.000E+00  0.000E+00  1.29340E+02  '
               '2.690E+00  5.030E+00  1.111E-03  3.760E-03 -2.051E-04\n',
               '-   1    4   46     1    46    1.2469E+01  3.5544E-03   '
               '1.2466E+01  0.000E+00  0.000E+00  0.000E+00  1.29039E+02  '
               '2.689E+00  5.030E+00  1.111E-03  3.758E-03 -2.037E-04\n',
               '-   1    4   47     1    47    1.2466E+01  3.5536E-03   '
               '1.2462E+01  0.000E+00  0.000E+00  0.000E+00  1.28739E+02  '
               '2.689E+00  5.029E+00  1.111E-03  3.756E-03 -2.023E-04\n',
               '-   1    4   48     1    48    1.2462E+01  3.5527E-03   '
               '1.2458E+01  0.000E+00  0.000E+00  0.000E+00  1.28438E+02  '
               '2.688E+00  5.029E+00  1.111E-03  3.754E-03 -2.008E-04\n',
               '-   1    4   49     1    49    1.2458E+01  3.5519E-03   '
               '1.2455E+01  0.000E+00  0.000E+00  0.000E+00  1.28138E+02  '
               '2.688E+00  5.029E+00  1.111E-03  3.751E-03 -1.994E-04\n',
               '-   1    4   50     1    50    1.2455E+01  3.5511E-03   '
               '1.2451E+01  0.000E+00  0.000E+00  0.000E+00  1.27838E+02  '
               '2.688E+00  5.028E+00  1.111E-03  3.749E-03 -1.979E-04\n',
               '-   1    4   51     1    51    1.2451E+01  3.5503E-03   '
               '1.2448E+01  0.000E+00  0.000E+00  0.000E+00  1.27537E+02  '
               '2.687E+00  5.028E+00  1.111E-03  3.747E-03 -1.964E-04\n',
               '-   1    4   52     1    52    1.2448E+01  3.5494E-03   '
               '1.2444E+01  0.000E+00  0.000E+00  0.000E+00  1.27237E+02  '
               '2.687E+00  5.027E+00  1.110E-03  3.744E-03 -1.950E-04\n',
               '-   1    4   53     1    53    1.2444E+01  3.5486E-03   '
               '1.2441E+01  0.000E+00  0.000E+00  0.000E+00  1.26937E+02  '
               '2.687E+00  5.027E+00  1.110E-03  3.742E-03 -1.943E-04\n',
               '-   1    4   54     1    54    1.2441E+01  3.5478E-03   '
               '1.2437E+01  0.000E+00  0.000E+00  0.000E+00  1.26636E+02  '
               '2.686E+00  5.026E+00  1.110E-03  3.740E-03 -1.926E-04\n',
               '-   1    4   55     1    55    1.2437E+01  3.5470E-03   '
               '1.2434E+01  0.000E+00  0.000E+00  0.000E+00  1.26336E+02  '
               '2.686E+00  5.026E+00  1.110E-03  3.738E-03 -1.911E-04\n',
               '-   1    4   56     1    56    1.2434E+01  3.5461E-03   '
               '1.2430E+01  0.000E+00  0.000E+00  0.000E+00  1.26035E+02  '
               '2.685E+00  5.025E+00  1.110E-03  3.735E-03 -1.899E-04\n',
               '-   1    4   57     1    57    1.2430E+01  3.5453E-03   '
               '1.2427E+01  0.000E+00  0.000E+00  0.000E+00  1.25735E+02  '
               '2.685E+00  5.025E+00  1.110E-03  3.733E-03 -1.878E-04\n',
               '-   1    4   58     1    58    1.2427E+01  3.5445E-03   '
               '1.2423E+01  0.000E+00  0.000E+00  0.000E+00  1.25435E+02  '
               '2.685E+00  5.024E+00  1.110E-03  3.731E-03 -1.864E-04\n',
               '-   1    4   59     1    59    1.2423E+01  3.5437E-03   '
               '1.2419E+01  0.000E+00  0.000E+00  0.000E+00  1.25134E+02  '
               '2.684E+00  5.024E+00  1.110E-03  3.729E-03 -1.850E-04\n',
               '-   1    4   60     1    60    1.2419E+01  3.5428E-03   '
               '1.2416E+01  0.000E+00  0.000E+00  0.000E+00  1.24834E+02  '
               '2.684E+00  5.024E+00  1.109E-03  3.726E-03 -1.836E-04\n',
               '-   1    4   61     1    61    1.2416E+01  3.5420E-03   '
               '1.2412E+01  0.000E+00  0.000E+00  0.000E+00  1.24533E+02  '
               '2.683E+00  5.023E+00  1.109E-03  3.724E-03 -1.823E-04\n',
               '-   1    4   62     1    62    1.2412E+01  3.5412E-03   '
               '1.2409E+01  0.000E+00  0.000E+00  0.000E+00  1.24233E+02  '
               '2.683E+00  5.023E+00  1.109E-03  3.722E-03 -1.809E-04\n',
               '-   1    4   63     1    63    1.2409E+01  3.5404E-03   '
               '1.2405E+01  0.000E+00  0.000E+00  0.000E+00  1.23933E+02  '
               '2.683E+00  5.022E+00  1.109E-03  3.720E-03 -1.796E-04\n',
               '-   1    4   64     1    64    1.2405E+01  3.5396E-03   '
               '1.2402E+01  0.000E+00  0.000E+00  0.000E+00  1.23632E+02  '
               '2.682E+00  5.022E+00  1.109E-03  3.718E-03 -1.782E-04\n',
               '-   1    4   65     1    65    1.2402E+01  3.5387E-03   '
               '1.2398E+01  0.000E+00  0.000E+00  0.000E+00  1.23332E+02  '
               '2.682E+00  5.021E+00  1.109E-03  3.716E-03 -1.769E-04\n',
               '-   1    4   66     1    66    1.2398E+01  3.5379E-03   '
               '1.2395E+01  0.000E+00  0.000E+00  0.000E+00  1.23032E+02  '
               '2.682E+00  5.021E+00  1.109E-03  3.713E-03 -1.755E-04\n',
               '-   1    4   67     1    67    1.2395E+01  3.5371E-03   '
               '1.2391E+01  0.000E+00  0.000E+00  0.000E+00  1.22731E+02  '
               '2.681E+00  5.020E+00  1.109E-03  3.711E-03 -1.742E-04\n',
               '-   1    4   68     1    68    1.2391E+01  3.5363E-03   '
               '1.2388E+01  0.000E+00  0.000E+00  0.000E+00  1.22431E+02  '
               '2.681E+00  5.020E+00  1.108E-03  3.709E-03 -1.729E-04\n',
               '-   1    4   69     1    69    1.2388E+01  3.5354E-03   '
               '1.2384E+01  0.000E+00  0.000E+00  0.000E+00  1.22130E+02  '
               '2.680E+00  5.019E+00  1.108E-03  3.707E-03 -1.715E-04\n',
               '-   1    4   70     1    70    1.2384E+01  3.5346E-03   '
               '1.2381E+01  0.000E+00  0.000E+00  0.000E+00  1.21830E+02  '
               '2.680E+00  5.019E+00  1.108E-03  3.705E-03 -1.701E-04\n',
               '-   1    4   71     1    71    1.2381E+01  3.5338E-03   '
               '1.2377E+01  0.000E+00  0.000E+00  0.000E+00  1.21530E+02  '
               '2.680E+00  5.018E+00  1.108E-03  3.703E-03 -1.693E-04\n',
               '-   1    4   72     1    72    1.2377E+01  3.5330E-03   '
               '1.2373E+01  0.000E+00  0.000E+00  0.000E+00  1.21229E+02  '
               '2.679E+00  5.018E+00  1.108E-03  3.707E-03 -1.739E-04\n',
               '-   1    4   73     1    73    1.2373E+01  3.5322E-03   '
               '1.2370E+01  0.000E+00  0.000E+00  0.000E+00  1.20929E+02  '
               '2.679E+00  5.018E+00  1.108E-03  3.711E-03 -1.789E-04\n',
               '-   1    4   74     1    74    1.2370E+01  3.5313E-03   '
               '1.2366E+01  0.000E+00  0.000E+00  0.000E+00  1.20628E+02  '
               '2.678E+00  5.017E+00  1.108E-03  3.716E-03 -1.844E-04\n',
               '-   1    4   75     1    75    1.2366E+01  3.5305E-03   '
               '1.2363E+01  0.000E+00  0.000E+00  0.000E+00  1.20328E+02  '
               '2.678E+00  5.017E+00  1.108E-03  3.729E-03 -1.990E-04\n',
               '-   1    4   76     1    76    1.2363E+01  3.5297E-03   '
               '1.2359E+01  0.000E+00  0.000E+00  0.000E+00  1.20028E+02  '
               '2.678E+00  5.016E+00  1.107E-03  3.750E-03 -2.200E-04\n',
               '-   1    4   77     1    77    1.2359E+01  3.5289E-03   '
               '1.2356E+01  0.000E+00  0.000E+00  0.000E+00  1.19727E+02  '
               '2.677E+00  5.016E+00  1.107E-03  3.764E-03 -2.347E-04\n',
               '-   1    4   78     1    78    1.2356E+01  3.5281E-03   '
               '1.2352E+01  0.000E+00  0.000E+00  0.000E+00  1.19427E+02  '
               '2.677E+00  5.015E+00  1.107E-03  3.779E-03 -2.505E-04\n',
               '-   1    4   79     1    79    1.2352E+01  3.5272E-03   '
               '1.2349E+01  0.000E+00  0.000E+00  0.000E+00  1.19127E+02  '
               '2.677E+00  5.015E+00  1.107E-03  3.794E-03 -2.672E-04\n',
               '-   1    4   80     1    80    1.2349E+01  3.5264E-03   '
               '1.2345E+01  0.000E+00  0.000E+00  0.000E+00  1.18826E+02  '
               '2.676E+00  5.014E+00  1.107E-03  3.794E-03 -2.671E-04\n',
               '-   1    4   81     1    81    1.2345E+01  3.5256E-03   '
               '1.2342E+01  0.000E+00  0.000E+00  0.000E+00  1.18526E+02  '
               '2.676E+00  5.014E+00  1.107E-03  3.800E-03 -2.748E-04\n',
               '-   1    4   82     1    82    1.2342E+01  3.5248E-03   '
               '1.2338E+01  0.000E+00  0.000E+00  0.000E+00  1.18225E+02  '
               '2.675E+00  5.013E+00  1.107E-03  3.808E-03 -2.830E-04\n',
               '-   1    4   83     1    83    1.2338E+01  3.5240E-03   '
               '1.2335E+01  0.000E+00  0.000E+00  0.000E+00  1.17925E+02  '
               '2.675E+00  5.013E+00  1.107E-03  3.816E-03 -2.916E-04\n',
               '-   1    4   84     1    84    1.2335E+01  3.5231E-03   '
               '1.2331E+01  0.000E+00  0.000E+00  0.000E+00  1.17625E+02  '
               '2.675E+00  5.013E+00  1.106E-03  3.818E-03 -2.950E-04\n',
               '-   1    4   85     1    85    1.2331E+01  3.5223E-03   '
               '1.2328E+01  0.000E+00  0.000E+00  0.000E+00  1.17324E+02  '
               '2.674E+00  5.012E+00  1.106E-03  3.815E-03 -2.923E-04\n',
               '-   1    4   86     1    86    1.2328E+01  3.5215E-03   '
               '1.2324E+01  0.000E+00  0.000E+00  0.000E+00  1.17024E+02  '
               '2.674E+00  5.012E+00  1.106E-03  3.814E-03 -2.923E-04\n',
               '-   1    4   87     1    87    1.2324E+01  3.5207E-03   '
               '1.2321E+01  0.000E+00  0.000E+00  0.000E+00  1.16723E+02  '
               '2.673E+00  5.011E+00  1.106E-03  3.823E-03 -3.022E-04\n',
               '-   1    4   88     1    88    1.2321E+01  3.5199E-03   '
               '1.2317E+01  0.000E+00  0.000E+00  0.000E+00  1.16423E+02  '
               '2.673E+00  5.011E+00  1.106E-03  3.833E-03 -3.127E-04\n',
               '-   1    4   89     1    89    1.2317E+01  3.5190E-03   '
               '1.2314E+01  0.000E+00  0.000E+00  0.000E+00  1.16123E+02  '
               '2.673E+00  5.010E+00  1.106E-03  3.841E-03 -3.217E-04\n',
               '-   1    4   90     1    90    1.2314E+01  3.5182E-03   '
               '1.2310E+01  0.000E+00  0.000E+00  0.000E+00  1.15822E+02  '
               '2.672E+00  5.010E+00  1.106E-03  3.838E-03 -3.194E-04\n',
               '-   1    4   91     1    91    1.2310E+01  3.5174E-03   '
               '1.2306E+01  0.000E+00  0.000E+00  0.000E+00  1.15522E+02  '
               '2.672E+00  5.009E+00  1.106E-03  3.864E-03 -3.464E-04\n',
               '-   1    4   92     1    92    1.2306E+01  3.5166E-03   '
               '1.2303E+01  0.000E+00  0.000E+00  0.000E+00  1.15222E+02  '
               '2.672E+00  5.009E+00  1.105E-03  3.914E-03 -3.975E-04\n',
               '-   1    4   93     1    93    1.2303E+01  3.5158E-03   '
               '1.2299E+01  0.000E+00  0.000E+00  0.000E+00  1.14921E+02  '
               '2.671E+00  5.008E+00  1.105E-03  3.966E-03 -4.506E-04\n',
               '-   1    4   94     1    94    1.2299E+01  3.5150E-03   '
               '1.2296E+01  0.000E+00  0.000E+00  0.000E+00  1.14621E+02  '
               '2.671E+00  5.008E+00  1.105E-03  3.993E-03 -4.783E-04\n',
               '-   1    4   95     1    95    1.2296E+01  3.5141E-03   '
               '1.2292E+01  0.000E+00  0.000E+00  0.000E+00  1.14320E+02  '
               '2.670E+00  5.007E+00  1.105E-03  4.010E-03 -4.956E-04\n',
               '-   1    4   96     1    96    1.2292E+01  3.5133E-03   '
               '1.2289E+01  0.000E+00  0.000E+00  0.000E+00  1.14020E+02  '
               '2.670E+00  5.007E+00  1.105E-03  4.028E-03 -5.149E-04\n',
               '-   1    4   97     1    97    1.2289E+01  3.5125E-03   '
               '1.2285E+01  0.000E+00  0.000E+00  0.000E+00  1.13720E+02  '
               '2.670E+00  5.007E+00  1.105E-03  4.046E-03 -5.338E-04\n',
               '-   1    4   98     1    98    1.2285E+01  3.5117E-03   '
               '1.2282E+01  0.000E+00  0.000E+00  0.000E+00  1.13419E+02  '
               '2.669E+00  5.006E+00  1.105E-03  4.067E-03 -5.555E-04\n',
               '-   1    4   99     1    99    1.2282E+01  3.5109E-03   '
               '1.2278E+01  0.000E+00  0.000E+00  0.000E+00  1.13119E+02  '
               '2.669E+00  5.006E+00  1.105E-03  4.095E-03 -5.842E-04\n',
               '-   1    4  100     1   100    1.2278E+01  3.5101E-03   '
               '1.2275E+01  0.000E+00  0.000E+00  0.000E+00  1.12819E+02  '
               '2.669E+00  5.005E+00  1.104E-03  4.120E-03 -6.095E-04\n',
               '-\n',
               '-\n',
               '-\n',
               '-1\n',
               '-  VOLUMETRIC BUDGET FOR UNSATURATED ZONE BENEATH STREAMS AT '
               'END OF TIME STEP    30 STRESS PERIOD  21\n',
               '-  '
               '------------------------------------------------------------------------------------------------\n',
               '-\n',
               '-    CUMULATIVE VOLUMES             L**3    RATES FOR THIS '
               'TIME STEP         L**3/T\n',
               '-    ------------------                     '
               '------------------------\n',
               '-\n',
               '-\n',
               '-          STREAM LOSS =     26171328.0000            STREAM '
               'LOSS =            0.3551\n',
               '-    CHANGE IN STORAGE =       609805.8750      CHANGE IN '
               'STORAGE =       -2.9333E-02\n',
               '-       RECHARGE TO GW =     25565158.0000         RECHARGE TO '
               'GW =            0.3844\n',
               '-\n',
               '-             TOTAL IN =     26171328.0000               TOTAL '
               'IN =            0.3844\n',
               '-\n',
               '-            TOTAL OUT =     26174964.0000              TOTAL '
               'OUT =            0.3844\n',
               '-\n',
               '-             IN - OUT =        -3636.0000               IN - '
               'OUT =        3.2783E-06\n',
               '-\n',
               '-  PERCENT DISCREPANCY =           -0.00      PERCENT '
               'DISCREPANCY =             0.00\n',
               '-\n',
               '-\n',
               '-\n',
               '-1\n',
               '-  VOLUMETRIC BUDGET FOR ENTIRE MODEL AT END OF TIME STEP   '
               '30, STRESS PERIOD  21\n',
               '-  '
               '------------------------------------------------------------------------------\n',
               '-\n',
               '-     CUMULATIVE VOLUMES      L**3       RATES FOR THIS TIME '
               'STEP      L**3/T\n',
               '-     ------------------                 '
               '------------------------\n',
               '-\n',
               '-           IN:                                      IN:\n',
               '-           ---                                      ---\n',
               '-             STORAGE =    10251805.0000               STORAGE '
               '=       4.9317E-02\n',
               '-       CONSTANT HEAD =           0.0000         CONSTANT HEAD '
               '=           0.0000\n',
               '-     HEAD DEP BOUNDS =           0.0000       HEAD DEP BOUNDS '
               '=           0.0000\n',
               '-      STREAM LEAKAGE =    25565176.0000        STREAM LEAKAGE '
               '=           0.3844\n',
               '-\n',
               '-            TOTAL IN =    35816980.0000              TOTAL IN '
               '=           0.4337\n',
               '-\n',
               '-          OUT:                                     OUT:\n',
               '-          ----                                     ----\n',
               '-             STORAGE =    15401490.0000               STORAGE '
               '=           0.1398\n',
               '-       CONSTANT HEAD =           0.0000         CONSTANT HEAD '
               '=           0.0000\n',
               '-     HEAD DEP BOUNDS =    20415396.0000       HEAD DEP BOUNDS '
               '=           0.2938\n',
               '-      STREAM LEAKAGE =           0.0000        STREAM LEAKAGE '
               '=           0.0000\n',
               '-\n',
               '-           TOTAL OUT =    35816888.0000             TOTAL OUT '
               '=           0.4336\n',
               '-\n',
               '-            IN - OUT =          92.0000              IN - OUT '
               '=       7.2151E-05\n',
               '-\n',
               '- PERCENT DISCREPANCY =           0.00     PERCENT DISCREPANCY '
               '=           0.02\n',
               '-\n',
               '-\n',
               '-\n',
               '-\n',
               '-\n',
               '-\n',
               '-         TIME SUMMARY AT END OF TIME STEP   30 IN STRESS '
               'PERIOD   21\n',
               '-                    SECONDS     MINUTES      HOURS       '
               'DAYS        YEARS\n',
               '-                    '
               '-----------------------------------------------------------\n',
               '-   TIME STEP LENGTH 2.49961E+05  4166.0      69.434      '
               '2.8931     7.92080E-03\n',
               '- STRESS PERIOD TIME 2.59200E+06  43200.      720.00      '
               '30.000     8.21355E-02\n',
               '-         TOTAL TIME 5.44320E+07 9.07199E+05  15120.      '
               '630.00      1.7248    \n',
               '-1\n',
               '-1\n',
               '-                            STRESS PERIOD NO.   22, LENGTH '
               '=   2592000.    \n',
               '-                            '
               '-----------------------------------------------\n',
               '-\n',
               '-                              NUMBER OF TIME STEPS =    30\n',
               '-\n',
               '-                               MULTIPLIER FOR DELT =     '
               '1.100\n',
               '-\n',
               '-                            INITIAL TIME STEP SIZE =   '
               '15757.40    \n',
               '-\n',
               '- REUSING NON-PARAMETER GHB CELLS FROM LAST STRESS PERIOD\n',
               '-\n',
               '-      7 GHB CELLS\n',
               '- \n',
               '- SOLVING FOR HEAD \n',
               '-\n',
               '- NO OUTPUT CONTROL FOR STRESS PERIOD   22   TIME STEP    1\n',
               '- \n',
               '- SOLVING FOR HEAD \n',
               '-\n',
               '- NO OUTPUT CONTROL FOR STRESS PERIOD   22   TIME STEP    2\n',
               '- \n',
               '- SOLVING FOR HEAD \n',
               '-\n',
               '- NO OUTPUT CONTROL FOR STRESS PERIOD   22   TIME STEP    3\n',
               '- \n',
               '- SOLVING FOR HEAD \n',
               '-\n',
               '- NO OUTPUT CONTROL FOR STRESS PERIOD   22   TIME STEP    4\n',
               '- \n',
               '- SOLVING FOR HEAD \n',
               '-\n',
               '- NO OUTPUT CONTROL FOR STRESS PERIOD   22   TIME STEP    5\n',
               '- \n',
               '- SOLVING FOR HEAD \n',
               '-\n',
               '- NO OUTPUT CONTROL FOR STRESS PERIOD   22   TIME STEP    6\n',
               '- \n',
               '- SOLVING FOR HEAD \n',
               '-\n',
               '- NO OUTPUT CONTROL FOR STRESS PERIOD   22   TIME STEP    7\n',
               '- \n',
               '- SOLVING FOR HEAD \n',
               '-\n',
               '- NO OUTPUT CONTROL FOR STRESS PERIOD   22   TIME STEP    8\n',
               '- \n',
               '- SOLVING FOR HEAD \n',
               '-\n',
               '- NO OUTPUT CONTROL FOR STRESS PERIOD   22   TIME STEP    9\n',
               '- \n',
               '- SOLVING FOR HEAD \n',
               '-\n',
               '- NO OUTPUT CONTROL FOR STRESS PERIOD   22   TIME STEP   10\n',
               '- \n',
               '- SOLVING FOR HEAD \n',
               '-\n',
               '- NO OUTPUT CONTROL FOR STRESS PERIOD   22   TIME STEP   11\n',
               '- \n',
               '- SOLVING FOR HEAD \n',
               '-\n',
               '- NO OUTPUT CONTROL FOR STRESS PERIOD   22   TIME STEP   12\n',
               '- \n',
               '- SOLVING FOR HEAD \n',
               '-\n',
               '- NO OUTPUT CONTROL FOR STRESS PERIOD   22   TIME STEP   13\n',
               '- \n',
               '- SOLVING FOR HEAD \n',
               '-\n',
               '- NO OUTPUT CONTROL FOR STRESS PERIOD   22   TIME STEP   14\n',
               '- \n',
               '- SOLVING FOR HEAD \n',
               '-\n',
               '- NO OUTPUT CONTROL FOR STRESS PERIOD   22   TIME STEP   15\n',
               '- \n',
               '- SOLVING FOR HEAD \n',
               '-\n',
               '- NO OUTPUT CONTROL FOR STRESS PERIOD   22   TIME STEP   16\n',
               '- \n',
               '- SOLVING FOR HEAD \n',
               '-\n',
               '- NO OUTPUT CONTROL FOR STRESS PERIOD   22   TIME STEP   17\n',
               '- \n',
               '- SOLVING FOR HEAD \n',
               '-\n',
               '- NO OUTPUT CONTROL FOR STRESS PERIOD   22   TIME STEP   18\n',
               '- \n',
               '- SOLVING FOR HEAD \n',
               '-\n',
               '- NO OUTPUT CONTROL FOR STRESS PERIOD   22   TIME STEP   19\n',
               '- \n',
               '- SOLVING FOR HEAD \n',
               '-\n',
               '- NO OUTPUT CONTROL FOR STRESS PERIOD   22   TIME STEP   20\n',
               '- \n',
               '- SOLVING FOR HEAD \n',
               '-\n',
               '- NO OUTPUT CONTROL FOR STRESS PERIOD   22   TIME STEP   21\n',
               '- \n',
               '- SOLVING FOR HEAD \n',
               '-\n',
               '- NO OUTPUT CONTROL FOR STRESS PERIOD   22   TIME STEP   22\n',
               '- \n',
               '- SOLVING FOR HEAD \n',
               '-\n',
               '- NO OUTPUT CONTROL FOR STRESS PERIOD   22   TIME STEP   23\n',
               '- \n',
               '- SOLVING FOR HEAD \n',
               '-\n',
               '- NO OUTPUT CONTROL FOR STRESS PERIOD   22   TIME STEP   24\n',
               '- \n',
               '- SOLVING FOR HEAD \n',
               '-\n',
               '- NO OUTPUT CONTROL FOR STRESS PERIOD   22   TIME STEP   25\n',
               '- \n',
               '- SOLVING FOR HEAD \n',
               '-\n',
               '- NO OUTPUT CONTROL FOR STRESS PERIOD   22   TIME STEP   26\n',
               '- \n',
               '- SOLVING FOR HEAD \n',
               '-\n',
               '- NO OUTPUT CONTROL FOR STRESS PERIOD   22   TIME STEP   27\n',
               '- \n',
               '- SOLVING FOR HEAD \n',
               '-\n',
               '- NO OUTPUT CONTROL FOR STRESS PERIOD   22   TIME STEP   28\n',
               '- \n',
               '- SOLVING FOR HEAD \n',
               '-\n',
               '- NO OUTPUT CONTROL FOR STRESS PERIOD   22   TIME STEP   29\n',
               '- \n',
               '- SOLVING FOR HEAD \n',
               '-\n',
               '- NO OUTPUT CONTROL FOR STRESS PERIOD   22   TIME STEP   30\n',
               '-\n',
               '-\n',
               '-\n',
               '- STREAM LISTING     PERIOD     22   STEP       30\n',
               '-\n',
               '- LAYER ROW COL. STREAM  RCH.   FLOW INTO    STREAM     FLOW '
               'OUT OF   OVRLND.    DIRECT     STREAM      STREAM      '
               'STREAM     STREAM  STREAMBED   FLOW TO   CHNG. UNSAT. \n',
               '-                SEG.NO.  NO.   STRM. RCH.    LOSS       STRM. '
               'RCH.   RUNOFF     PRECIP       ET         HEAD        '
               'DEPTH      WIDTH  CONDCTNC.   WAT. TAB.\n',
               '-\n',
               '-   1    4    1     1     1    5.8160E+00  1.9303E-03   '
               '5.8140E+00  0.000E+00  0.000E+00  0.000E+00  1.41674E+02  '
               '1.824E+00  3.995E+00  8.289E-04  2.197E-03 -2.667E-04\n',
               '-   1    4    2     1     2    5.8140E+00  1.9298E-03   '
               '5.8121E+00  0.000E+00  0.000E+00  0.000E+00  1.41374E+02  '
               '1.824E+00  3.995E+00  8.288E-04  2.196E-03 -2.665E-04\n',
               '-   1    4    3     1     3    5.8121E+00  1.9293E-03   '
               '5.8102E+00  0.000E+00  0.000E+00  0.000E+00  1.41073E+02  '
               '1.823E+00  3.994E+00  8.287E-04  2.196E-03 -2.662E-04\n',
               '-   1    4    4     1     4    5.8102E+00  1.9288E-03   '
               '5.8082E+00  0.000E+00  0.000E+00  0.000E+00  1.40773E+02  '
               '1.823E+00  3.994E+00  8.286E-04  2.195E-03 -2.660E-04\n',
               '-   1    4    5     1     5    5.8082E+00  1.9283E-03   '
               '5.8063E+00  0.000E+00  0.000E+00  0.000E+00  1.40473E+02  '
               '1.823E+00  3.993E+00  8.285E-04  2.194E-03 -2.657E-04\n',
               '-   1    4    6     1     6    5.8063E+00  1.9278E-03   '
               '5.8044E+00  0.000E+00  0.000E+00  0.000E+00  1.40173E+02  '
               '1.823E+00  3.993E+00  8.284E-04  2.193E-03 -2.654E-04\n',
               '-   1    4    7     1     7    5.8044E+00  1.9273E-03   '
               '5.8025E+00  0.000E+00  0.000E+00  0.000E+00  1.39872E+02  '
               '1.822E+00  3.993E+00  8.283E-04  2.192E-03 -2.651E-04\n',
               '-   1    4    8     1     8    5.8025E+00  1.9268E-03   '
               '5.8005E+00  0.000E+00  0.000E+00  0.000E+00  1.39572E+02  '
               '1.822E+00  3.992E+00  8.282E-04  2.192E-03 -2.648E-04\n',
               '-   1    4    9     1     9    5.8005E+00  1.9263E-03   '
               '5.7986E+00  0.000E+00  0.000E+00  0.000E+00  1.39272E+02  '
               '1.822E+00  3.992E+00  8.281E-04  2.191E-03 -2.644E-04\n',
               '-   1    4   10     1    10    5.7986E+00  1.9258E-03   '
               '5.7967E+00  0.000E+00  0.000E+00  0.000E+00  1.38971E+02  '
               '1.821E+00  3.992E+00  8.280E-04  2.188E-03 -2.624E-04\n',
               '-   1    4   11     1    11    5.7967E+00  1.9254E-03   '
               '5.7948E+00  0.000E+00  0.000E+00  0.000E+00  1.38671E+02  '
               '1.821E+00  3.991E+00  8.279E-04  2.181E-03 -2.555E-04\n',
               '-   1    4   12     1    12    5.7948E+00  1.9249E-03   '
               '5.7928E+00  0.000E+00  0.000E+00  0.000E+00  1.38371E+02  '
               '1.821E+00  3.991E+00  8.278E-04  2.173E-03 -2.486E-04\n',
               '-   1    4   13     1    13    5.7928E+00  1.9244E-03   '
               '5.7909E+00  0.000E+00  0.000E+00  0.000E+00  1.38070E+02  '
               '1.820E+00  3.990E+00  8.277E-04  2.166E-03 -2.417E-04\n',
               '-   1    4   14     1    14    5.7909E+00  1.9239E-03   '
               '5.7890E+00  0.000E+00  0.000E+00  0.000E+00  1.37770E+02  '
               '1.820E+00  3.990E+00  8.276E-04  2.157E-03 -2.333E-04\n',
               '-   1    4   15     1    15    5.7890E+00  1.9234E-03   '
               '5.7871E+00  0.000E+00  0.000E+00  0.000E+00  1.37470E+02  '
               '1.820E+00  3.990E+00  8.275E-04  2.156E-03 -2.328E-04\n',
               '-   1    4   16     1    16    5.7871E+00  1.9229E-03   '
               '5.7851E+00  0.000E+00  0.000E+00  0.000E+00  1.37169E+02  '
               '1.819E+00  3.989E+00  8.274E-04  2.153E-03 -2.297E-04\n',
               '-   1    4   17     1    17    5.7851E+00  1.9224E-03   '
               '5.7832E+00  0.000E+00  0.000E+00  0.000E+00  1.36869E+02  '
               '1.819E+00  3.989E+00  8.273E-04  2.136E-03 -2.131E-04\n',
               '-   1    4   18     1    18    5.7832E+00  1.9219E-03   '
               '5.7813E+00  0.000E+00  0.000E+00  0.000E+00  1.36569E+02  '
               '1.819E+00  3.989E+00  8.272E-04  2.117E-03 -1.950E-04\n',
               '-   1    4   19     1    19    5.7813E+00  1.9214E-03   '
               '5.7794E+00  0.000E+00  0.000E+00  0.000E+00  1.36268E+02  '
               '1.818E+00  3.988E+00  8.271E-04  2.098E-03 -1.770E-04\n',
               '-   1    4   20     1    20    5.7794E+00  1.9209E-03   '
               '5.7775E+00  0.000E+00  0.000E+00  0.000E+00  1.35968E+02  '
               '1.818E+00  3.988E+00  8.270E-04  2.085E-03 -1.642E-04\n',
               '-   1    4   21     1    21    5.7775E+00  1.9204E-03   '
               '5.7755E+00  0.000E+00  0.000E+00  0.000E+00  1.35668E+02  '
               '1.818E+00  3.987E+00  8.268E-04  2.079E-03 -1.591E-04\n',
               '-   1    4   22     1    22    5.7755E+00  1.9199E-03   '
               '5.7736E+00  0.000E+00  0.000E+00  0.000E+00  1.35368E+02  '
               '1.818E+00  3.987E+00  8.267E-04  2.074E-03 -1.540E-04\n',
               '-   1    4   23     1    23    5.7736E+00  1.9194E-03   '
               '5.7717E+00  0.000E+00  0.000E+00  0.000E+00  1.35067E+02  '
               '1.817E+00  3.987E+00  8.266E-04  2.068E-03 -1.489E-04\n',
               '-   1    4   24     1    24    5.7717E+00  1.9189E-03   '
               '5.7698E+00  0.000E+00  0.000E+00  0.000E+00  1.34767E+02  '
               '1.817E+00  3.986E+00  8.265E-04  2.063E-03 -1.439E-04\n',
               '-   1    4   25     1    25    5.7698E+00  1.9184E-03   '
               '5.7679E+00  0.000E+00  0.000E+00  0.000E+00  1.34467E+02  '
               '1.817E+00  3.986E+00  8.264E-04  2.060E-03 -1.420E-04\n',
               '-   1    4   26     1    26    5.7679E+00  1.9179E-03   '
               '5.7659E+00  0.000E+00  0.000E+00  0.000E+00  1.34166E+02  '
               '1.816E+00  3.986E+00  8.263E-04  2.059E-03 -1.413E-04\n',
               '-   1    4   27     1    27    5.7659E+00  1.9174E-03   '
               '5.7640E+00  0.000E+00  0.000E+00  0.000E+00  1.33866E+02  '
               '1.816E+00  3.985E+00  8.262E-04  2.058E-03 -1.406E-04\n',
               '-   1    4   28     1    28    5.7640E+00  1.9170E-03   '
               '5.7621E+00  0.000E+00  0.000E+00  0.000E+00  1.33566E+02  '
               '1.816E+00  3.985E+00  8.261E-04  2.057E-03 -1.398E-04\n',
               '-   1    4   29     1    29    5.7621E+00  1.9165E-03   '
               '5.7602E+00  0.000E+00  0.000E+00  0.000E+00  1.33265E+02  '
               '1.815E+00  3.984E+00  8.260E-04  2.056E-03 -1.390E-04\n',
               '-   1    4   30     1    30    5.7602E+00  1.9160E-03   '
               '5.7583E+00  0.000E+00  0.000E+00  0.000E+00  1.32965E+02  '
               '1.815E+00  3.984E+00  8.259E-04  2.054E-03 -1.383E-04\n',
               '-   1    4   31     1    31    5.7583E+00  1.9155E-03   '
               '5.7564E+00  0.000E+00  0.000E+00  0.000E+00  1.32665E+02  '
               '1.815E+00  3.984E+00  8.258E-04  2.053E-03 -1.374E-04\n',
               '-   1    4   32     1    32    5.7564E+00  1.9150E-03   '
               '5.7544E+00  0.000E+00  0.000E+00  0.000E+00  1.32364E+02  '
               '1.814E+00  3.983E+00  8.257E-04  2.052E-03 -1.366E-04\n',
               '-   1    4   33     1    33    5.7544E+00  1.9145E-03   '
               '5.7525E+00  0.000E+00  0.000E+00  0.000E+00  1.32064E+02  '
               '1.814E+00  3.983E+00  8.256E-04  2.050E-03 -1.358E-04\n',
               '-   1    4   34     1    34    5.7525E+00  1.9140E-03   '
               '5.7506E+00  0.000E+00  0.000E+00  0.000E+00  1.31764E+02  '
               '1.814E+00  3.983E+00  8.255E-04  2.049E-03 -1.349E-04\n',
               '-   1    4   35     1    35    5.7506E+00  1.9135E-03   '
               '5.7487E+00  0.000E+00  0.000E+00  0.000E+00  1.31464E+02  '
               '1.814E+00  3.982E+00  8.254E-04  2.048E-03 -1.340E-04\n',
               '-   1    4   36     1    36    5.7487E+00  1.9130E-03   '
               '5.7468E+00  0.000E+00  0.000E+00  0.000E+00  1.31163E+02  '
               '1.813E+00  3.982E+00  8.253E-04  2.046E-03 -1.331E-04\n',
               '-   1    4   37     1    37    5.7468E+00  1.9125E-03   '
               '5.7449E+00  0.000E+00  0.000E+00  0.000E+00  1.30863E+02  '
               '1.813E+00  3.981E+00  8.252E-04  2.045E-03 -1.322E-04\n',
               '-   1    4   38     1    38    5.7449E+00  1.9120E-03   '
               '5.7430E+00  0.000E+00  0.000E+00  0.000E+00  1.30563E+02  '
               '1.813E+00  3.981E+00  8.251E-04  2.043E-03 -1.313E-04\n',
               '-   1    4   39     1    39    5.7430E+00  1.9115E-03   '
               '5.7411E+00  0.000E+00  0.000E+00  0.000E+00  1.30262E+02  '
               '1.812E+00  3.981E+00  8.250E-04  2.042E-03 -1.303E-04\n',
               '-   1    4   40     1    40    5.7411E+00  1.9111E-03   '
               '5.7391E+00  0.000E+00  0.000E+00  0.000E+00  1.29962E+02  '
               '1.812E+00  3.980E+00  8.249E-04  2.040E-03 -1.293E-04\n',
               '-   1    4   41     1    41    5.7391E+00  1.9106E-03   '
               '5.7372E+00  0.000E+00  0.000E+00  0.000E+00  1.29662E+02  '
               '1.812E+00  3.980E+00  8.248E-04  2.039E-03 -1.284E-04\n',
               '-   1    4   42     1    42    5.7372E+00  1.9101E-03   '
               '5.7353E+00  0.000E+00  0.000E+00  0.000E+00  1.29361E+02  '
               '1.811E+00  3.980E+00  8.247E-04  2.036E-03 -1.257E-04\n',
               '-   1    4   43     1    43    5.7353E+00  1.9096E-03   '
               '5.7334E+00  0.000E+00  0.000E+00  0.000E+00  1.29061E+02  '
               '1.811E+00  3.979E+00  8.246E-04  2.031E-03 -1.215E-04\n',
               '-   1    4   44     1    44    5.7334E+00  1.9091E-03   '
               '5.7315E+00  0.000E+00  0.000E+00  0.000E+00  1.28761E+02  '
               '1.811E+00  3.979E+00  8.245E-04  2.027E-03 -1.176E-04\n',
               '-   1    4   45     1    45    5.7315E+00  1.9086E-03   '
               '5.7296E+00  0.000E+00  0.000E+00  0.000E+00  1.28460E+02  '
               '1.810E+00  3.979E+00  8.244E-04  2.023E-03 -1.140E-04\n',
               '-   1    4   46     1    46    5.7296E+00  1.9081E-03   '
               '5.7277E+00  0.000E+00  0.000E+00  0.000E+00  1.28160E+02  '
               '1.810E+00  3.978E+00  8.243E-04  2.019E-03 -1.105E-04\n',
               '-   1    4   47     1    47    5.7277E+00  1.9076E-03   '
               '5.7258E+00  0.000E+00  0.000E+00  0.000E+00  1.27860E+02  '
               '1.810E+00  3.978E+00  8.242E-04  2.015E-03 -1.074E-04\n',
               '-   1    4   48     1    48    5.7258E+00  1.9071E-03   '
               '5.7239E+00  0.000E+00  0.000E+00  0.000E+00  1.27559E+02  '
               '1.809E+00  3.977E+00  8.241E-04  2.012E-03 -1.044E-04\n',
               '-   1    4   49     1    49    5.7239E+00  1.9066E-03   '
               '5.7220E+00  0.000E+00  0.000E+00  0.000E+00  1.27259E+02  '
               '1.809E+00  3.977E+00  8.240E-04  2.008E-03 -1.018E-04\n',
               '-   1    4   50     1    50    5.7220E+00  1.9061E-03   '
               '5.7201E+00  0.000E+00  0.000E+00  0.000E+00  1.26959E+02  '
               '1.809E+00  3.977E+00  8.239E-04  2.006E-03 -9.992E-05\n',
               '-   1    4   51     1    51    5.7201E+00  1.9056E-03   '
               '5.7182E+00  0.000E+00  0.000E+00  0.000E+00  1.26659E+02  '
               '1.809E+00  3.976E+00  8.238E-04  2.005E-03 -9.897E-05\n',
               '-   1    4   52     1    52    5.7182E+00  1.9052E-03   '
               '5.7162E+00  0.000E+00  0.000E+00  0.000E+00  1.26358E+02  '
               '1.808E+00  3.976E+00  8.237E-04  2.003E-03 -9.802E-05\n',
               '-   1    4   53     1    53    5.7162E+00  1.9047E-03   '
               '5.7143E+00  0.000E+00  0.000E+00  0.000E+00  1.26058E+02  '
               '1.808E+00  3.976E+00  8.236E-04  2.002E-03 -9.707E-05\n',
               '-   1    4   54     1    54    5.7143E+00  1.9042E-03   '
               '5.7124E+00  0.000E+00  0.000E+00  0.000E+00  1.25758E+02  '
               '1.808E+00  3.975E+00  8.235E-04  2.000E-03 -9.612E-05\n',
               '-   1    4   55     1    55    5.7124E+00  1.9037E-03   '
               '5.7105E+00  0.000E+00  0.000E+00  0.000E+00  1.25457E+02  '
               '1.807E+00  3.975E+00  8.234E-04  1.999E-03 -9.518E-05\n',
               '-   1    4   56     1    56    5.7105E+00  1.9032E-03   '
               '5.7086E+00  0.000E+00  0.000E+00  0.000E+00  1.25157E+02  '
               '1.807E+00  3.974E+00  8.233E-04  1.997E-03 -9.423E-05\n',
               '-   1    4   57     1    57    5.7086E+00  1.9027E-03   '
               '5.7067E+00  0.000E+00  0.000E+00  0.000E+00  1.24857E+02  '
               '1.807E+00  3.974E+00  8.232E-04  1.996E-03 -9.329E-05\n',
               '-   1    4   58     1    58    5.7067E+00  1.9022E-03   '
               '5.7048E+00  0.000E+00  0.000E+00  0.000E+00  1.24556E+02  '
               '1.806E+00  3.974E+00  8.231E-04  1.995E-03 -9.235E-05\n',
               '-   1    4   59     1    59    5.7048E+00  1.9017E-03   '
               '5.7029E+00  0.000E+00  0.000E+00  0.000E+00  1.24256E+02  '
               '1.806E+00  3.973E+00  8.230E-04  1.994E-03 -9.261E-05\n',
               '-   1    4   60     1    60    5.7029E+00  1.9012E-03   '
               '5.7010E+00  0.000E+00  0.000E+00  0.000E+00  1.23956E+02  '
               '1.806E+00  3.973E+00  8.229E-04  1.995E-03 -9.362E-05\n',
               '-   1    4   61     1    61    5.7010E+00  1.9008E-03   '
               '5.6991E+00  0.000E+00  0.000E+00  0.000E+00  1.23655E+02  '
               '1.805E+00  3.973E+00  8.228E-04  1.996E-03 -9.503E-05\n',
               '-   1    4   62     1    62    5.6991E+00  1.9003E-03   '
               '5.6972E+00  0.000E+00  0.000E+00  0.000E+00  1.23355E+02  '
               '1.805E+00  3.972E+00  8.227E-04  1.997E-03 -9.683E-05\n',
               '-   1    4   63     1    63    5.6972E+00  1.8998E-03   '
               '5.6953E+00  0.000E+00  0.000E+00  0.000E+00  1.23055E+02  '
               '1.805E+00  3.972E+00  8.226E-04  1.999E-03 -9.905E-05\n',
               '-   1    4   64     1    64    5.6953E+00  1.8993E-03   '
               '5.6934E+00  0.000E+00  0.000E+00  0.000E+00  1.22754E+02  '
               '1.804E+00  3.971E+00  8.225E-04  2.001E-03 -1.017E-04\n',
               '-   1    4   65     1    65    5.6934E+00  1.8988E-03   '
               '5.6915E+00  0.000E+00  0.000E+00  0.000E+00  1.22454E+02  '
               '1.804E+00  3.971E+00  8.224E-04  2.003E-03 -1.041E-04\n',
               '-   1    4   66     1    66    5.6915E+00  1.8983E-03   '
               '5.6896E+00  0.000E+00  0.000E+00  0.000E+00  1.22154E+02  '
               '1.804E+00  3.971E+00  8.223E-04  2.001E-03 -1.031E-04\n',
               '-   1    4   67     1    67    5.6896E+00  1.8978E-03   '
               '5.6877E+00  0.000E+00  0.000E+00  0.000E+00  1.21854E+02  '
               '1.804E+00  3.970E+00  8.222E-04  2.000E-03 -1.021E-04\n',
               '-   1    4   68     1    68    5.6877E+00  1.8973E-03   '
               '5.6858E+00  0.000E+00  0.000E+00  0.000E+00  1.21553E+02  '
               '1.803E+00  3.970E+00  8.221E-04  1.998E-03 -1.011E-04\n',
               '-   1    4   69     1    69    5.6858E+00  1.8968E-03   '
               '5.6839E+00  0.000E+00  0.000E+00  0.000E+00  1.21253E+02  '
               '1.803E+00  3.970E+00  8.220E-04  1.997E-03 -1.000E-04\n',
               '-   1    4   70     1    70    5.6839E+00  1.8964E-03   '
               '5.6820E+00  0.000E+00  0.000E+00  0.000E+00  1.20953E+02  '
               '1.803E+00  3.969E+00  8.219E-04  1.995E-03 -9.896E-05\n',
               '-   1    4   71     1    71    5.6820E+00  1.8959E-03   '
               '5.6801E+00  0.000E+00  0.000E+00  0.000E+00  1.20652E+02  '
               '1.802E+00  3.969E+00  8.218E-04  1.994E-03 -9.788E-05\n',
               '-   1    4   72     1    72    5.6801E+00  1.8954E-03   '
               '5.6782E+00  0.000E+00  0.000E+00  0.000E+00  1.20352E+02  '
               '1.802E+00  3.968E+00  8.217E-04  1.992E-03 -9.678E-05\n',
               '-   1    4   73     1    73    5.6782E+00  1.8949E-03   '
               '5.6764E+00  0.000E+00  0.000E+00  0.000E+00  1.20052E+02  '
               '1.802E+00  3.968E+00  8.216E-04  1.991E-03 -9.567E-05\n',
               '-   1    4   74     1    74    5.6764E+00  1.8944E-03   '
               '5.6745E+00  0.000E+00  0.000E+00  0.000E+00  1.19751E+02  '
               '1.801E+00  3.968E+00  8.215E-04  1.989E-03 -9.453E-05\n',
               '-   1    4   75     1    75    5.6745E+00  1.8939E-03   '
               '5.6726E+00  0.000E+00  0.000E+00  0.000E+00  1.19451E+02  '
               '1.801E+00  3.967E+00  8.214E-04  1.987E-03 -9.335E-05\n',
               '-   1    4   76     1    76    5.6726E+00  1.8934E-03   '
               '5.6707E+00  0.000E+00  0.000E+00  0.000E+00  1.19151E+02  '
               '1.801E+00  3.967E+00  8.213E-04  1.986E-03 -9.214E-05\n',
               '-   1    4   77     1    77    5.6707E+00  1.8929E-03   '
               '5.6688E+00  0.000E+00  0.000E+00  0.000E+00  1.18850E+02  '
               '1.800E+00  3.967E+00  8.212E-04  1.984E-03 -9.092E-05\n',
               '-   1    4   78     1    78    5.6688E+00  1.8924E-03   '
               '5.6669E+00  0.000E+00  0.000E+00  0.000E+00  1.18550E+02  '
               '1.800E+00  3.966E+00  8.211E-04  1.982E-03 -8.969E-05\n',
               '-   1    4   79     1    79    5.6669E+00  1.8920E-03   '
               '5.6650E+00  0.000E+00  0.000E+00  0.000E+00  1.18250E+02  '
               '1.800E+00  3.966E+00  8.210E-04  1.983E-03 -9.077E-05\n',
               '-   1    4   80     1    80    5.6650E+00  1.8915E-03   '
               '5.6631E+00  0.000E+00  0.000E+00  0.000E+00  1.17950E+02  '
               '1.800E+00  3.966E+00  8.209E-04  1.989E-03 -9.767E-05\n',
               '-   1    4   81     1    81    5.6631E+00  1.8910E-03   '
               '5.6612E+00  0.000E+00  0.000E+00  0.000E+00  1.17649E+02  '
               '1.799E+00  3.965E+00  8.208E-04  2.005E-03 -1.143E-04\n',
               '-   1    4   82     1    82    5.6612E+00  1.8905E-03   '
               '5.6593E+00  0.000E+00  0.000E+00  0.000E+00  1.17349E+02  '
               '1.799E+00  3.965E+00  8.207E-04  2.028E-03 -1.377E-04\n',
               '-   1    4   83     1    83    5.6593E+00  1.8900E-03   '
               '5.6574E+00  0.000E+00  0.000E+00  0.000E+00  1.17049E+02  '
               '1.799E+00  3.964E+00  8.206E-04  2.058E-03 -1.680E-04\n',
               '-   1    4   84     1    84    5.6574E+00  1.8895E-03   '
               '5.6555E+00  0.000E+00  0.000E+00  0.000E+00  1.16748E+02  '
               '1.798E+00  3.964E+00  8.205E-04  2.075E-03 -1.852E-04\n',
               '-   1    4   85     1    85    5.6555E+00  1.8890E-03   '
               '5.6537E+00  0.000E+00  0.000E+00  0.000E+00  1.16448E+02  '
               '1.798E+00  3.964E+00  8.204E-04  2.073E-03 -1.842E-04\n',
               '-   1    4   86     1    86    5.6537E+00  1.8886E-03   '
               '5.6518E+00  0.000E+00  0.000E+00  0.000E+00  1.16148E+02  '
               '1.798E+00  3.963E+00  8.203E-04  2.072E-03 -1.833E-04\n',
               '-   1    4   87     1    87    5.6518E+00  1.8881E-03   '
               '5.6499E+00  0.000E+00  0.000E+00  0.000E+00  1.15847E+02  '
               '1.797E+00  3.963E+00  8.202E-04  2.071E-03 -1.826E-04\n',
               '-   1    4   88     1    88    5.6499E+00  1.8876E-03   '
               '5.6480E+00  0.000E+00  0.000E+00  0.000E+00  1.15547E+02  '
               '1.797E+00  3.963E+00  8.201E-04  2.070E-03 -1.821E-04\n',
               '-   1    4   89     1    89    5.6480E+00  1.8871E-03   '
               '5.6461E+00  0.000E+00  0.000E+00  0.000E+00  1.15247E+02  '
               '1.797E+00  3.962E+00  8.199E-04  2.069E-03 -1.819E-04\n',
               '-   1    4   90     1    90    5.6461E+00  1.8866E-03   '
               '5.6442E+00  0.000E+00  0.000E+00  0.000E+00  1.14946E+02  '
               '1.796E+00  3.962E+00  8.198E-04  2.078E-03 -1.914E-04\n',
               '-   1    4   91     1    91    5.6442E+00  1.8861E-03   '
               '5.6423E+00  0.000E+00  0.000E+00  0.000E+00  1.14646E+02  '
               '1.796E+00  3.961E+00  8.197E-04  2.102E-03 -2.154E-04\n',
               '-   1    4   92     1    92    5.6423E+00  1.8856E-03   '
               '5.6404E+00  0.000E+00  0.000E+00  0.000E+00  1.14346E+02  '
               '1.796E+00  3.961E+00  8.196E-04  2.117E-03 -2.313E-04\n',
               '-   1    4   93     1    93    5.6404E+00  1.8851E-03   '
               '5.6386E+00  0.000E+00  0.000E+00  0.000E+00  1.14045E+02  '
               '1.795E+00  3.961E+00  8.195E-04  2.134E-03 -2.485E-04\n',
               '-   1    4   94     1    94    5.6386E+00  1.8847E-03   '
               '5.6367E+00  0.000E+00  0.000E+00  0.000E+00  1.13745E+02  '
               '1.795E+00  3.960E+00  8.194E-04  2.145E-03 -2.605E-04\n',
               '-   1    4   95     1    95    5.6367E+00  1.8842E-03   '
               '5.6348E+00  0.000E+00  0.000E+00  0.000E+00  1.13445E+02  '
               '1.795E+00  3.960E+00  8.193E-04  2.148E-03 -2.639E-04\n',
               '-   1    4   96     1    96    5.6348E+00  1.8837E-03   '
               '5.6329E+00  0.000E+00  0.000E+00  0.000E+00  1.13145E+02  '
               '1.795E+00  3.960E+00  8.192E-04  2.152E-03 -2.680E-04\n',
               '-   1    4   97     1    97    5.6329E+00  1.8832E-03   '
               '5.6310E+00  0.000E+00  0.000E+00  0.000E+00  1.12844E+02  '
               '1.794E+00  3.959E+00  8.191E-04  2.177E-03 -2.943E-04\n',
               '-   1    4   98     1    98    5.6310E+00  1.8827E-03   '
               '5.6291E+00  0.000E+00  0.000E+00  0.000E+00  1.12544E+02  '
               '1.794E+00  3.959E+00  8.190E-04  2.194E-03 -3.113E-04\n',
               '-   1    4   99     1    99    5.6291E+00  1.8822E-03   '
               '5.6273E+00  0.000E+00  0.000E+00  0.000E+00  1.12244E+02  '
               '1.794E+00  3.958E+00  8.189E-04  2.205E-03 -3.226E-04\n',
               '-   1    4  100     1   100    5.6273E+00  1.8817E-03   '
               '5.6254E+00  0.000E+00  0.000E+00  0.000E+00  1.11943E+02  '
               '1.793E+00  3.958E+00  8.188E-04  2.277E-03 -3.957E-04\n',
               '-\n',
               '-\n',
               '-\n',
               '-1\n',
               '-  VOLUMETRIC BUDGET FOR UNSATURATED ZONE BENEATH STREAMS AT '
               'END OF TIME STEP    30 STRESS PERIOD  22\n',
               '-  '
               '------------------------------------------------------------------------------------------------\n',
               '-\n',
               '-    CUMULATIVE VOLUMES             L**3    RATES FOR THIS '
               'TIME STEP         L**3/T\n',
               '-    ------------------                     '
               '------------------------\n',
               '-\n',
               '-\n',
               '-          STREAM LOSS =     26665246.0000            STREAM '
               'LOSS =            0.1906\n',
               '-    CHANGE IN STORAGE =       462675.0000      CHANGE IN '
               'STORAGE =       -1.6172E-02\n',
               '-       RECHARGE TO GW =     26206370.0000         RECHARGE TO '
               'GW =            0.2068\n',
               '-\n',
               '-             TOTAL IN =     26665246.0000               TOTAL '
               'IN =            0.2068\n',
               '-\n',
               '-            TOTAL OUT =     26669044.0000              TOTAL '
               'OUT =            0.2068\n',
               '-\n',
               '-             IN - OUT =        -3798.0000               IN - '
               'OUT =       -2.9802E-08\n',
               '-\n',
               '-  PERCENT DISCREPANCY =           -0.00      PERCENT '
               'DISCREPANCY =            -0.00\n',
               '-\n',
               '-\n',
               '-\n',
               '-1\n',
               '-  VOLUMETRIC BUDGET FOR ENTIRE MODEL AT END OF TIME STEP   '
               '30, STRESS PERIOD  22\n',
               '-  '
               '------------------------------------------------------------------------------\n',
               '-\n',
               '-     CUMULATIVE VOLUMES      L**3       RATES FOR THIS TIME '
               'STEP      L**3/T\n',
               '-     ------------------                 '
               '------------------------\n',
               '-\n',
               '-           IN:                                      IN:\n',
               '-           ---                                      ---\n',
               '-             STORAGE =    10518755.0000               STORAGE '
               '=           0.1149\n',
               '-       CONSTANT HEAD =           0.0000         CONSTANT HEAD '
               '=           0.0000\n',
               '-     HEAD DEP BOUNDS =           0.0000       HEAD DEP BOUNDS '
               '=           0.0000\n',
               '-      STREAM LEAKAGE =    26206342.0000        STREAM LEAKAGE '
               '=           0.2068\n',
               '-\n',
               '-            TOTAL IN =    36725096.0000              TOTAL IN '
               '=           0.3217\n',
               '-\n',
               '-          OUT:                                     OUT:\n',
               '-          ----                                     ----\n',
               '-             STORAGE =    15571803.0000               STORAGE '
               '=       4.4926E-02\n',
               '-       CONSTANT HEAD =           0.0000         CONSTANT HEAD '
               '=           0.0000\n',
               '-     HEAD DEP BOUNDS =    21153278.0000       HEAD DEP BOUNDS '
               '=           0.2767\n',
               '-      STREAM LEAKAGE =           0.0000        STREAM LEAKAGE '
               '=           0.0000\n',
               '-\n',
               '-           TOTAL OUT =    36725080.0000             TOTAL OUT '
               '=           0.3217\n',
               '-\n',
               '-            IN - OUT =          16.0000              IN - OUT '
               '=       8.8811E-06\n',
               '-\n',
               '- PERCENT DISCREPANCY =           0.00     PERCENT DISCREPANCY '
               '=           0.00\n',
               '-\n',
               '-\n',
               '-\n',
               '-\n',
               '-\n',
               '-\n',
               '-         TIME SUMMARY AT END OF TIME STEP   30 IN STRESS '
               'PERIOD   22\n',
               '-                    SECONDS     MINUTES      HOURS       '
               'DAYS        YEARS\n',
               '-                    '
               '-----------------------------------------------------------\n',
               '-   TIME STEP LENGTH 2.49961E+05  4166.0      69.434      '
               '2.8931     7.92080E-03\n',
               '- STRESS PERIOD TIME 2.59200E+06  43200.      720.00      '
               '30.000     8.21355E-02\n',
               '-         TOTAL TIME 5.70240E+07 9.50399E+05  15840.      '
               '660.00      1.8070    \n',
               '-1\n',
               '-1\n',
               '-                            STRESS PERIOD NO.   23, LENGTH '
               '=   2592000.    \n',
               '-                            '
               '-----------------------------------------------\n',
               '-\n',
               '-                              NUMBER OF TIME STEPS =    30\n',
               '-\n',
               '-                               MULTIPLIER FOR DELT =     '
               '1.100\n',
               '-\n',
               '-                            INITIAL TIME STEP SIZE =   '
               '15757.40    \n',
               '-\n',
               '- REUSING NON-PARAMETER GHB CELLS FROM LAST STRESS PERIOD\n',
               '-\n',
               '-      7 GHB CELLS\n',
               '- \n',
               '- SOLVING FOR HEAD \n',
               '-\n',
               '- NO OUTPUT CONTROL FOR STRESS PERIOD   23   TIME STEP    1\n',
               '- \n',
               '- SOLVING FOR HEAD \n',
               '-\n',
               '- NO OUTPUT CONTROL FOR STRESS PERIOD   23   TIME STEP    2\n',
               '- \n',
               '- SOLVING FOR HEAD \n',
               '-\n',
               '- NO OUTPUT CONTROL FOR STRESS PERIOD   23   TIME STEP    3\n',
               '- \n',
               '- SOLVING FOR HEAD \n',
               '-\n',
               '- NO OUTPUT CONTROL FOR STRESS PERIOD   23   TIME STEP    4\n',
               '- \n',
               '- SOLVING FOR HEAD \n',
               '-\n',
               '- NO OUTPUT CONTROL FOR STRESS PERIOD   23   TIME STEP    5\n',
               '- \n',
               '- SOLVING FOR HEAD \n',
               '-\n',
               '- NO OUTPUT CONTROL FOR STRESS PERIOD   23   TIME STEP    6\n',
               '- \n',
               '- SOLVING FOR HEAD \n',
               '-\n',
               '- NO OUTPUT CONTROL FOR STRESS PERIOD   23   TIME STEP    7\n',
               '- \n',
               '- SOLVING FOR HEAD \n',
               '-\n',
               '- NO OUTPUT CONTROL FOR STRESS PERIOD   23   TIME STEP    8\n',
               '- \n',
               '- SOLVING FOR HEAD \n',
               '-\n',
               '- NO OUTPUT CONTROL FOR STRESS PERIOD   23   TIME STEP    9\n',
               '- \n',
               '- SOLVING FOR HEAD \n',
               '-\n',
               '- NO OUTPUT CONTROL FOR STRESS PERIOD   23   TIME STEP   10\n',
               '- \n',
               '- SOLVING FOR HEAD \n',
               '-\n',
               '- NO OUTPUT CONTROL FOR STRESS PERIOD   23   TIME STEP   11\n',
               '- \n',
               '- SOLVING FOR HEAD \n',
               '-\n',
               '- NO OUTPUT CONTROL FOR STRESS PERIOD   23   TIME STEP   12\n',
               '- \n',
               '- SOLVING FOR HEAD \n',
               '-\n',
               '- NO OUTPUT CONTROL FOR STRESS PERIOD   23   TIME STEP   13\n',
               '- \n',
               '- SOLVING FOR HEAD \n',
               '-\n',
               '- NO OUTPUT CONTROL FOR STRESS PERIOD   23   TIME STEP   14\n',
               '- \n',
               '- SOLVING FOR HEAD \n',
               '-\n',
               '- NO OUTPUT CONTROL FOR STRESS PERIOD   23   TIME STEP   15\n',
               '- \n',
               '- SOLVING FOR HEAD \n',
               '-\n',
               '- NO OUTPUT CONTROL FOR STRESS PERIOD   23   TIME STEP   16\n',
               '- \n',
               '- SOLVING FOR HEAD \n',
               '-\n',
               '- NO OUTPUT CONTROL FOR STRESS PERIOD   23   TIME STEP   17\n',
               '- \n',
               '- SOLVING FOR HEAD \n',
               '-\n',
               '- NO OUTPUT CONTROL FOR STRESS PERIOD   23   TIME STEP   18\n',
               '- \n',
               '- SOLVING FOR HEAD \n',
               '-\n',
               '- NO OUTPUT CONTROL FOR STRESS PERIOD   23   TIME STEP   19\n',
               '- \n',
               '- SOLVING FOR HEAD \n',
               '-\n',
               '- NO OUTPUT CONTROL FOR STRESS PERIOD   23   TIME STEP   20\n',
               '- \n',
               '- SOLVING FOR HEAD \n',
               '-\n',
               '- NO OUTPUT CONTROL FOR STRESS PERIOD   23   TIME STEP   21\n',
               '- \n',
               '- SOLVING FOR HEAD \n',
               '-\n',
               '- NO OUTPUT CONTROL FOR STRESS PERIOD   23   TIME STEP   22\n',
               '- \n',
               '- SOLVING FOR HEAD \n',
               '-\n',
               '- NO OUTPUT CONTROL FOR STRESS PERIOD   23   TIME STEP   23\n',
               '- \n',
               '- SOLVING FOR HEAD \n',
               '-\n',
               '- NO OUTPUT CONTROL FOR STRESS PERIOD   23   TIME STEP   24\n',
               '- \n',
               '- SOLVING FOR HEAD \n',
               '-\n',
               '- NO OUTPUT CONTROL FOR STRESS PERIOD   23   TIME STEP   25\n',
               '- \n',
               '- SOLVING FOR HEAD \n',
               '-\n',
               '- NO OUTPUT CONTROL FOR STRESS PERIOD   23   TIME STEP   26\n',
               '- \n',
               '- SOLVING FOR HEAD \n',
               '-\n',
               '- NO OUTPUT CONTROL FOR STRESS PERIOD   23   TIME STEP   27\n',
               '- \n',
               '- SOLVING FOR HEAD \n',
               '-\n',
               '- NO OUTPUT CONTROL FOR STRESS PERIOD   23   TIME STEP   28\n',
               '- \n',
               '- SOLVING FOR HEAD \n',
               '-\n',
               '- NO OUTPUT CONTROL FOR STRESS PERIOD   23   TIME STEP   29\n',
               '- \n',
               '- SOLVING FOR HEAD \n',
               '-\n',
               '- NO OUTPUT CONTROL FOR STRESS PERIOD   23   TIME STEP   30\n',
               '-\n',
               '-\n',
               '-\n',
               '- STREAM LISTING     PERIOD     23   STEP       30\n',
               '-\n',
               '- LAYER ROW COL. STREAM  RCH.   FLOW INTO    STREAM     FLOW '
               'OUT OF   OVRLND.    DIRECT     STREAM      STREAM      '
               'STREAM     STREAM  STREAMBED   FLOW TO   CHNG. UNSAT. \n',
               '-                SEG.NO.  NO.   STRM. RCH.    LOSS       STRM. '
               'RCH.   RUNOFF     PRECIP       ET         HEAD        '
               'DEPTH      WIDTH  CONDCTNC.   WAT. TAB.\n',
               '-\n',
               '-   1    4    1     1     1    4.2960E+00  1.5300E-03   '
               '4.2944E+00  0.000E+00  0.000E+00  0.000E+00  1.41409E+02  '
               '1.559E+00  3.678E+00  7.425E-04  1.651E-03 -1.208E-04\n',
               '-   1    4    2     1     2    4.2944E+00  1.5296E-03   '
               '4.2929E+00  0.000E+00  0.000E+00  0.000E+00  1.41109E+02  '
               '1.559E+00  3.678E+00  7.424E-04  1.650E-03 -1.206E-04\n',
               '-   1    4    3     1     3    4.2929E+00  1.5292E-03   '
               '4.2914E+00  0.000E+00  0.000E+00  0.000E+00  1.40809E+02  '
               '1.559E+00  3.678E+00  7.423E-04  1.650E-03 -1.205E-04\n',
               '-   1    4    4     1     4    4.2914E+00  1.5288E-03   '
               '4.2899E+00  0.000E+00  0.000E+00  0.000E+00  1.40509E+02  '
               '1.559E+00  3.677E+00  7.422E-04  1.648E-03 -1.187E-04\n',
               '-   1    4    5     1     5    4.2899E+00  1.5284E-03   '
               '4.2883E+00  0.000E+00  0.000E+00  0.000E+00  1.40208E+02  '
               '1.558E+00  3.677E+00  7.421E-04  1.640E-03 -1.112E-04\n',
               '-   1    4    6     1     6    4.2883E+00  1.5280E-03   '
               '4.2868E+00  0.000E+00  0.000E+00  0.000E+00  1.39908E+02  '
               '1.558E+00  3.676E+00  7.420E-04  1.632E-03 -1.038E-04\n',
               '-   1    4    7     1     7    4.2868E+00  1.5276E-03   '
               '4.2853E+00  0.000E+00  0.000E+00  0.000E+00  1.39608E+02  '
               '1.558E+00  3.676E+00  7.419E-04  1.625E-03 -9.770E-05\n',
               '-   1    4    8     1     8    4.2853E+00  1.5272E-03   '
               '4.2837E+00  0.000E+00  0.000E+00  0.000E+00  1.39307E+02  '
               '1.557E+00  3.676E+00  7.418E-04  1.625E-03 -9.751E-05\n',
               '-   1    4    9     1     9    4.2837E+00  1.5268E-03   '
               '4.2822E+00  0.000E+00  0.000E+00  0.000E+00  1.39007E+02  '
               '1.557E+00  3.675E+00  7.417E-04  1.624E-03 -9.731E-05\n',
               '-   1    4   10     1    10    4.2822E+00  1.5264E-03   '
               '4.2807E+00  0.000E+00  0.000E+00  0.000E+00  1.38707E+02  '
               '1.557E+00  3.675E+00  7.417E-04  1.623E-03 -9.709E-05\n',
               '-   1    4   11     1    11    4.2807E+00  1.5260E-03   '
               '4.2792E+00  0.000E+00  0.000E+00  0.000E+00  1.38407E+02  '
               '1.557E+00  3.675E+00  7.416E-04  1.623E-03 -9.684E-05\n',
               '-   1    4   12     1    12    4.2792E+00  1.5256E-03   '
               '4.2776E+00  0.000E+00  0.000E+00  0.000E+00  1.38106E+02  '
               '1.556E+00  3.674E+00  7.415E-04  1.622E-03 -9.656E-05\n',
               '-   1    4   13     1    13    4.2776E+00  1.5252E-03   '
               '4.2761E+00  0.000E+00  0.000E+00  0.000E+00  1.37806E+02  '
               '1.556E+00  3.674E+00  7.414E-04  1.621E-03 -9.626E-05\n',
               '-   1    4   14     1    14    4.2761E+00  1.5248E-03   '
               '4.2746E+00  0.000E+00  0.000E+00  0.000E+00  1.37506E+02  '
               '1.556E+00  3.674E+00  7.413E-04  1.621E-03 -9.593E-05\n',
               '-   1    4   15     1    15    4.2746E+00  1.5243E-03   '
               '4.2731E+00  0.000E+00  0.000E+00  0.000E+00  1.37205E+02  '
               '1.555E+00  3.673E+00  7.412E-04  1.620E-03 -9.559E-05\n',
               '-   1    4   16     1    16    4.2731E+00  1.5239E-03   '
               '4.2715E+00  0.000E+00  0.000E+00  0.000E+00  1.36905E+02  '
               '1.555E+00  3.673E+00  7.411E-04  1.619E-03 -9.521E-05\n',
               '-   1    4   17     1    17    4.2715E+00  1.5235E-03   '
               '4.2700E+00  0.000E+00  0.000E+00  0.000E+00  1.36605E+02  '
               '1.555E+00  3.673E+00  7.410E-04  1.618E-03 -9.482E-05\n',
               '-   1    4   18     1    18    4.2700E+00  1.5231E-03   '
               '4.2685E+00  0.000E+00  0.000E+00  0.000E+00  1.36305E+02  '
               '1.555E+00  3.672E+00  7.409E-04  1.618E-03 -9.440E-05\n',
               '-   1    4   19     1    19    4.2685E+00  1.5227E-03   '
               '4.2670E+00  0.000E+00  0.000E+00  0.000E+00  1.36004E+02  '
               '1.554E+00  3.672E+00  7.408E-04  1.617E-03 -9.396E-05\n',
               '-   1    4   20     1    20    4.2670E+00  1.5223E-03   '
               '4.2655E+00  0.000E+00  0.000E+00  0.000E+00  1.35704E+02  '
               '1.554E+00  3.672E+00  7.407E-04  1.616E-03 -9.350E-05\n',
               '-   1    4   21     1    21    4.2655E+00  1.5219E-03   '
               '4.2639E+00  0.000E+00  0.000E+00  0.000E+00  1.35404E+02  '
               '1.554E+00  3.671E+00  7.406E-04  1.615E-03 -9.301E-05\n',
               '-   1    4   22     1    22    4.2639E+00  1.5215E-03   '
               '4.2624E+00  0.000E+00  0.000E+00  0.000E+00  1.35103E+02  '
               '1.553E+00  3.671E+00  7.405E-04  1.614E-03 -9.251E-05\n',
               '-   1    4   23     1    23    4.2624E+00  1.5211E-03   '
               '4.2609E+00  0.000E+00  0.000E+00  0.000E+00  1.34803E+02  '
               '1.553E+00  3.671E+00  7.404E-04  1.613E-03 -9.198E-05\n',
               '-   1    4   24     1    24    4.2609E+00  1.5207E-03   '
               '4.2594E+00  0.000E+00  0.000E+00  0.000E+00  1.34503E+02  '
               '1.553E+00  3.670E+00  7.403E-04  1.612E-03 -9.144E-05\n',
               '-   1    4   25     1    25    4.2594E+00  1.5203E-03   '
               '4.2578E+00  0.000E+00  0.000E+00  0.000E+00  1.34202E+02  '
               '1.552E+00  3.670E+00  7.402E-04  1.611E-03 -9.087E-05\n',
               '-   1    4   26     1    26    4.2578E+00  1.5199E-03   '
               '4.2563E+00  0.000E+00  0.000E+00  0.000E+00  1.33902E+02  '
               '1.552E+00  3.670E+00  7.402E-04  1.610E-03 -9.029E-05\n',
               '-   1    4   27     1    27    4.2563E+00  1.5195E-03   '
               '4.2548E+00  0.000E+00  0.000E+00  0.000E+00  1.33602E+02  '
               '1.552E+00  3.669E+00  7.401E-04  1.609E-03 -8.968E-05\n',
               '-   1    4   28     1    28    4.2548E+00  1.5191E-03   '
               '4.2533E+00  0.000E+00  0.000E+00  0.000E+00  1.33302E+02  '
               '1.552E+00  3.669E+00  7.400E-04  1.608E-03 -8.906E-05\n',
               '-   1    4   29     1    29    4.2533E+00  1.5187E-03   '
               '4.2518E+00  0.000E+00  0.000E+00  0.000E+00  1.33001E+02  '
               '1.551E+00  3.669E+00  7.399E-04  1.607E-03 -8.841E-05\n',
               '-   1    4   30     1    30    4.2518E+00  1.5183E-03   '
               '4.2503E+00  0.000E+00  0.000E+00  0.000E+00  1.32701E+02  '
               '1.551E+00  3.668E+00  7.398E-04  1.606E-03 -8.775E-05\n',
               '-   1    4   31     1    31    4.2503E+00  1.5179E-03   '
               '4.2487E+00  0.000E+00  0.000E+00  0.000E+00  1.32401E+02  '
               '1.551E+00  3.668E+00  7.397E-04  1.605E-03 -8.708E-05\n',
               '-   1    4   32     1    32    4.2487E+00  1.5174E-03   '
               '4.2472E+00  0.000E+00  0.000E+00  0.000E+00  1.32100E+02  '
               '1.550E+00  3.668E+00  7.396E-04  1.604E-03 -8.638E-05\n',
               '-   1    4   33     1    33    4.2472E+00  1.5170E-03   '
               '4.2457E+00  0.000E+00  0.000E+00  0.000E+00  1.31800E+02  '
               '1.550E+00  3.667E+00  7.395E-04  1.603E-03 -8.568E-05\n',
               '-   1    4   34     1    34    4.2457E+00  1.5166E-03   '
               '4.2442E+00  0.000E+00  0.000E+00  0.000E+00  1.31500E+02  '
               '1.550E+00  3.667E+00  7.394E-04  1.602E-03 -8.495E-05\n',
               '-   1    4   35     1    35    4.2442E+00  1.5162E-03   '
               '4.2427E+00  0.000E+00  0.000E+00  0.000E+00  1.31200E+02  '
               '1.550E+00  3.667E+00  7.393E-04  1.600E-03 -8.422E-05\n',
               '-   1    4   36     1    36    4.2427E+00  1.5158E-03   '
               '4.2412E+00  0.000E+00  0.000E+00  0.000E+00  1.30899E+02  '
               '1.549E+00  3.666E+00  7.392E-04  1.599E-03 -8.347E-05\n',
               '-   1    4   37     1    37    4.2412E+00  1.5154E-03   '
               '4.2396E+00  0.000E+00  0.000E+00  0.000E+00  1.30599E+02  '
               '1.549E+00  3.666E+00  7.391E-04  1.598E-03 -8.270E-05\n',
               '-   1    4   38     1    38    4.2396E+00  1.5150E-03   '
               '4.2381E+00  0.000E+00  0.000E+00  0.000E+00  1.30299E+02  '
               '1.549E+00  3.665E+00  7.390E-04  1.597E-03 -8.193E-05\n',
               '-   1    4   39     1    39    4.2381E+00  1.5146E-03   '
               '4.2366E+00  0.000E+00  0.000E+00  0.000E+00  1.29998E+02  '
               '1.548E+00  3.665E+00  7.389E-04  1.596E-03 -8.114E-05\n',
               '-   1    4   40     1    40    4.2366E+00  1.5142E-03   '
               '4.2351E+00  0.000E+00  0.000E+00  0.000E+00  1.29698E+02  '
               '1.548E+00  3.665E+00  7.388E-04  1.595E-03 -8.033E-05\n',
               '-   1    4   41     1    41    4.2351E+00  1.5138E-03   '
               '4.2336E+00  0.000E+00  0.000E+00  0.000E+00  1.29398E+02  '
               '1.548E+00  3.664E+00  7.387E-04  1.593E-03 -7.872E-05\n',
               '-   1    4   42     1    42    4.2336E+00  1.5134E-03   '
               '4.2321E+00  0.000E+00  0.000E+00  0.000E+00  1.29098E+02  '
               '1.548E+00  3.664E+00  7.387E-04  1.589E-03 -7.516E-05\n',
               '-   1    4   43     1    43    4.2321E+00  1.5130E-03   '
               '4.2306E+00  0.000E+00  0.000E+00  0.000E+00  1.28797E+02  '
               '1.547E+00  3.664E+00  7.386E-04  1.585E-03 -7.177E-05\n',
               '-   1    4   44     1    44    4.2306E+00  1.5126E-03   '
               '4.2290E+00  0.000E+00  0.000E+00  0.000E+00  1.28497E+02  '
               '1.547E+00  3.663E+00  7.385E-04  1.581E-03 -6.853E-05\n',
               '-   1    4   45     1    45    4.2290E+00  1.5122E-03   '
               '4.2275E+00  0.000E+00  0.000E+00  0.000E+00  1.28197E+02  '
               '1.547E+00  3.663E+00  7.384E-04  1.578E-03 -6.546E-05\n',
               '-   1    4   46     1    46    4.2275E+00  1.5118E-03   '
               '4.2260E+00  0.000E+00  0.000E+00  0.000E+00  1.27896E+02  '
               '1.546E+00  3.663E+00  7.383E-04  1.574E-03 -6.215E-05\n',
               '-   1    4   47     1    47    4.2260E+00  1.5114E-03   '
               '4.2245E+00  0.000E+00  0.000E+00  0.000E+00  1.27596E+02  '
               '1.546E+00  3.662E+00  7.382E-04  1.568E-03 -5.677E-05\n',
               '-   1    4   48     1    48    4.2245E+00  1.5110E-03   '
               '4.2230E+00  0.000E+00  0.000E+00  0.000E+00  1.27296E+02  '
               '1.546E+00  3.662E+00  7.381E-04  1.561E-03 -4.972E-05\n',
               '-   1    4   49     1    49    4.2230E+00  1.5106E-03   '
               '4.2215E+00  0.000E+00  0.000E+00  0.000E+00  1.26996E+02  '
               '1.546E+00  3.662E+00  7.380E-04  1.554E-03 -4.350E-05\n',
               '-   1    4   50     1    50    4.2215E+00  1.5102E-03   '
               '4.2200E+00  0.000E+00  0.000E+00  0.000E+00  1.26695E+02  '
               '1.545E+00  3.661E+00  7.379E-04  1.548E-03 -3.811E-05\n',
               '-   1    4   51     1    51    4.2200E+00  1.5098E-03   '
               '4.2185E+00  0.000E+00  0.000E+00  0.000E+00  1.26395E+02  '
               '1.545E+00  3.661E+00  7.378E-04  1.543E-03 -3.356E-05\n',
               '-   1    4   52     1    52    4.2185E+00  1.5094E-03   '
               '4.2170E+00  0.000E+00  0.000E+00  0.000E+00  1.26095E+02  '
               '1.545E+00  3.661E+00  7.377E-04  1.539E-03 -2.991E-05\n',
               '-   1    4   53     1    53    4.2170E+00  1.5090E-03   '
               '4.2154E+00  0.000E+00  0.000E+00  0.000E+00  1.25794E+02  '
               '1.544E+00  3.660E+00  7.376E-04  1.536E-03 -2.716E-05\n',
               '-   1    4   54     1    54    4.2154E+00  1.5086E-03   '
               '4.2139E+00  0.000E+00  0.000E+00  0.000E+00  1.25494E+02  '
               '1.544E+00  3.660E+00  7.375E-04  1.534E-03 -2.534E-05\n',
               '-   1    4   55     1    55    4.2139E+00  1.5082E-03   '
               '4.2124E+00  0.000E+00  0.000E+00  0.000E+00  1.25194E+02  '
               '1.544E+00  3.660E+00  7.374E-04  1.533E-03 -2.450E-05\n',
               '-   1    4   56     1    56    4.2124E+00  1.5078E-03   '
               '4.2109E+00  0.000E+00  0.000E+00  0.000E+00  1.24894E+02  '
               '1.544E+00  3.659E+00  7.373E-04  1.532E-03 -2.464E-05\n',
               '-   1    4   57     1    57    4.2109E+00  1.5074E-03   '
               '4.2094E+00  0.000E+00  0.000E+00  0.000E+00  1.24593E+02  '
               '1.543E+00  3.659E+00  7.372E-04  1.533E-03 -2.581E-05\n',
               '-   1    4   58     1    58    4.2094E+00  1.5070E-03   '
               '4.2079E+00  0.000E+00  0.000E+00  0.000E+00  1.24293E+02  '
               '1.543E+00  3.659E+00  7.372E-04  1.535E-03 -2.803E-05\n',
               '-   1    4   59     1    59    4.2079E+00  1.5066E-03   '
               '4.2064E+00  0.000E+00  0.000E+00  0.000E+00  1.23993E+02  '
               '1.543E+00  3.658E+00  7.371E-04  1.538E-03 -3.134E-05\n',
               '-   1    4   60     1    60    4.2064E+00  1.5062E-03   '
               '4.2049E+00  0.000E+00  0.000E+00  0.000E+00  1.23692E+02  '
               '1.542E+00  3.658E+00  7.370E-04  1.542E-03 -3.575E-05\n',
               '-   1    4   61     1    61    4.2049E+00  1.5057E-03   '
               '4.2034E+00  0.000E+00  0.000E+00  0.000E+00  1.23392E+02  '
               '1.542E+00  3.658E+00  7.369E-04  1.545E-03 -3.883E-05\n',
               '-   1    4   62     1    62    4.2034E+00  1.5053E-03   '
               '4.2019E+00  0.000E+00  0.000E+00  0.000E+00  1.23092E+02  '
               '1.542E+00  3.657E+00  7.368E-04  1.548E-03 -4.237E-05\n',
               '-   1    4   63     1    63    4.2019E+00  1.5049E-03   '
               '4.2004E+00  0.000E+00  0.000E+00  0.000E+00  1.22792E+02  '
               '1.542E+00  3.657E+00  7.367E-04  1.553E-03 -4.813E-05\n',
               '-   1    4   64     1    64    4.2004E+00  1.5045E-03   '
               '4.1989E+00  0.000E+00  0.000E+00  0.000E+00  1.22491E+02  '
               '1.541E+00  3.657E+00  7.366E-04  1.554E-03 -4.981E-05\n',
               '-   1    4   65     1    65    4.1989E+00  1.5041E-03   '
               '4.1974E+00  0.000E+00  0.000E+00  0.000E+00  1.22191E+02  '
               '1.541E+00  3.656E+00  7.365E-04  1.556E-03 -5.182E-05\n',
               '-   1    4   66     1    66    4.1974E+00  1.5037E-03   '
               '4.1959E+00  0.000E+00  0.000E+00  0.000E+00  1.21891E+02  '
               '1.541E+00  3.656E+00  7.364E-04  1.558E-03 -5.416E-05\n',
               '-   1    4   67     1    67    4.1959E+00  1.5033E-03   '
               '4.1944E+00  0.000E+00  0.000E+00  0.000E+00  1.21590E+02  '
               '1.540E+00  3.656E+00  7.363E-04  1.560E-03 -5.684E-05\n',
               '-   1    4   68     1    68    4.1944E+00  1.5029E-03   '
               '4.1929E+00  0.000E+00  0.000E+00  0.000E+00  1.21290E+02  '
               '1.540E+00  3.655E+00  7.362E-04  1.559E-03 -5.617E-05\n',
               '-   1    4   69     1    69    4.1929E+00  1.5025E-03   '
               '4.1914E+00  0.000E+00  0.000E+00  0.000E+00  1.20990E+02  '
               '1.540E+00  3.655E+00  7.361E-04  1.558E-03 -5.527E-05\n',
               '-   1    4   70     1    70    4.1914E+00  1.5021E-03   '
               '4.1899E+00  0.000E+00  0.000E+00  0.000E+00  1.20690E+02  '
               '1.540E+00  3.655E+00  7.360E-04  1.556E-03 -5.437E-05\n',
               '-   1    4   71     1    71    4.1899E+00  1.5017E-03   '
               '4.1884E+00  0.000E+00  0.000E+00  0.000E+00  1.20389E+02  '
               '1.539E+00  3.654E+00  7.359E-04  1.555E-03 -5.346E-05\n',
               '-   1    4   72     1    72    4.1884E+00  1.5013E-03   '
               '4.1868E+00  0.000E+00  0.000E+00  0.000E+00  1.20089E+02  '
               '1.539E+00  3.654E+00  7.358E-04  1.554E-03 -5.255E-05\n',
               '-   1    4   73     1    73    4.1868E+00  1.5009E-03   '
               '4.1853E+00  0.000E+00  0.000E+00  0.000E+00  1.19789E+02  '
               '1.539E+00  3.653E+00  7.358E-04  1.553E-03 -5.165E-05\n',
               '-   1    4   74     1    74    4.1853E+00  1.5005E-03   '
               '4.1838E+00  0.000E+00  0.000E+00  0.000E+00  1.19488E+02  '
               '1.538E+00  3.653E+00  7.357E-04  1.551E-03 -5.075E-05\n',
               '-   1    4   75     1    75    4.1838E+00  1.5001E-03   '
               '4.1823E+00  0.000E+00  0.000E+00  0.000E+00  1.19188E+02  '
               '1.538E+00  3.653E+00  7.356E-04  1.550E-03 -4.986E-05\n',
               '-   1    4   76     1    76    4.1823E+00  1.4997E-03   '
               '4.1808E+00  0.000E+00  0.000E+00  0.000E+00  1.18888E+02  '
               '1.538E+00  3.652E+00  7.355E-04  1.549E-03 -4.899E-05\n',
               '-   1    4   77     1    77    4.1808E+00  1.4993E-03   '
               '4.1793E+00  0.000E+00  0.000E+00  0.000E+00  1.18588E+02  '
               '1.538E+00  3.652E+00  7.354E-04  1.547E-03 -4.814E-05\n',
               '-   1    4   78     1    78    4.1793E+00  1.4989E-03   '
               '4.1779E+00  0.000E+00  0.000E+00  0.000E+00  1.18287E+02  '
               '1.537E+00  3.652E+00  7.353E-04  1.546E-03 -4.733E-05\n',
               '-   1    4   79     1    79    4.1779E+00  1.4985E-03   '
               '4.1764E+00  0.000E+00  0.000E+00  0.000E+00  1.17987E+02  '
               '1.537E+00  3.651E+00  7.352E-04  1.545E-03 -4.657E-05\n',
               '-   1    4   80     1    80    4.1764E+00  1.4981E-03   '
               '4.1749E+00  0.000E+00  0.000E+00  0.000E+00  1.17687E+02  '
               '1.537E+00  3.651E+00  7.351E-04  1.544E-03 -4.586E-05\n',
               '-   1    4   81     1    81    4.1749E+00  1.4977E-03   '
               '4.1734E+00  0.000E+00  0.000E+00  0.000E+00  1.17386E+02  '
               '1.536E+00  3.651E+00  7.350E-04  1.543E-03 -4.521E-05\n',
               '-   1    4   82     1    82    4.1734E+00  1.4973E-03   '
               '4.1719E+00  0.000E+00  0.000E+00  0.000E+00  1.17086E+02  '
               '1.536E+00  3.650E+00  7.349E-04  1.542E-03 -4.464E-05\n',
               '-   1    4   83     1    83    4.1719E+00  1.4969E-03   '
               '4.1704E+00  0.000E+00  0.000E+00  0.000E+00  1.16786E+02  '
               '1.536E+00  3.650E+00  7.348E-04  1.551E-03 -5.438E-05\n',
               '-   1    4   84     1    84    4.1704E+00  1.4965E-03   '
               '4.1689E+00  0.000E+00  0.000E+00  0.000E+00  1.16486E+02  '
               '1.536E+00  3.650E+00  7.347E-04  1.557E-03 -6.069E-05\n',
               '-   1    4   85     1    85    4.1689E+00  1.4961E-03   '
               '4.1674E+00  0.000E+00  0.000E+00  0.000E+00  1.16185E+02  '
               '1.535E+00  3.649E+00  7.346E-04  1.557E-03 -6.051E-05\n',
               '-   1    4   86     1    86    4.1674E+00  1.4957E-03   '
               '4.1659E+00  0.000E+00  0.000E+00  0.000E+00  1.15885E+02  '
               '1.535E+00  3.649E+00  7.345E-04  1.556E-03 -6.051E-05\n',
               '-   1    4   87     1    87    4.1659E+00  1.4953E-03   '
               '4.1644E+00  0.000E+00  0.000E+00  0.000E+00  1.15585E+02  '
               '1.535E+00  3.649E+00  7.344E-04  1.556E-03 -6.070E-05\n',
               '-   1    4   88     1    88    4.1644E+00  1.4949E-03   '
               '4.1629E+00  0.000E+00  0.000E+00  0.000E+00  1.15284E+02  '
               '1.534E+00  3.648E+00  7.344E-04  1.556E-03 -6.112E-05\n',
               '-   1    4   89     1    89    4.1629E+00  1.4945E-03   '
               '4.1614E+00  0.000E+00  0.000E+00  0.000E+00  1.14984E+02  '
               '1.534E+00  3.648E+00  7.343E-04  1.556E-03 -6.179E-05\n',
               '-   1    4   90     1    90    4.1614E+00  1.4941E-03   '
               '4.1599E+00  0.000E+00  0.000E+00  0.000E+00  1.14684E+02  '
               '1.534E+00  3.648E+00  7.342E-04  1.569E-03 -7.470E-05\n',
               '-   1    4   91     1    91    4.1599E+00  1.4937E-03   '
               '4.1584E+00  0.000E+00  0.000E+00  0.000E+00  1.14384E+02  '
               '1.534E+00  3.647E+00  7.341E-04  1.581E-03 -8.722E-05\n',
               '-   1    4   92     1    92    4.1584E+00  1.4933E-03   '
               '4.1569E+00  0.000E+00  0.000E+00  0.000E+00  1.14083E+02  '
               '1.533E+00  3.647E+00  7.340E-04  1.582E-03 -8.900E-05\n',
               '-   1    4   93     1    93    4.1569E+00  1.4929E-03   '
               '4.1554E+00  0.000E+00  0.000E+00  0.000E+00  1.13783E+02  '
               '1.533E+00  3.647E+00  7.339E-04  1.584E-03 -9.112E-05\n',
               '-   1    4   94     1    94    4.1554E+00  1.4925E-03   '
               '4.1539E+00  0.000E+00  0.000E+00  0.000E+00  1.13483E+02  '
               '1.533E+00  3.646E+00  7.338E-04  1.608E-03 -1.150E-04\n',
               '-   1    4   95     1    95    4.1539E+00  1.4921E-03   '
               '4.1524E+00  0.000E+00  0.000E+00  0.000E+00  1.13182E+02  '
               '1.532E+00  3.646E+00  7.337E-04  1.611E-03 -1.189E-04\n',
               '-   1    4   96     1    96    4.1524E+00  1.4917E-03   '
               '4.1509E+00  0.000E+00  0.000E+00  0.000E+00  1.12882E+02  '
               '1.532E+00  3.646E+00  7.336E-04  1.656E-03 -1.641E-04\n',
               '-   1    4   97     1    97    4.1509E+00  1.4913E-03   '
               '4.1494E+00  0.000E+00  0.000E+00  0.000E+00  1.12582E+02  '
               '1.532E+00  3.645E+00  7.335E-04  1.665E-03 -1.735E-04\n',
               '-   1    4   98     1    98    4.1494E+00  1.4909E-03   '
               '4.1480E+00  0.000E+00  0.000E+00  0.000E+00  1.12282E+02  '
               '1.532E+00  3.645E+00  7.334E-04  1.669E-03 -1.783E-04\n',
               '-   1    4   99     1    99    4.1480E+00  1.4905E-03   '
               '4.1465E+00  0.000E+00  0.000E+00  0.000E+00  1.11981E+02  '
               '1.531E+00  3.645E+00  7.333E-04  1.674E-03 -1.835E-04\n',
               '-   1    4  100     1   100    4.1465E+00  1.4901E-03   '
               '4.1450E+00  0.000E+00  0.000E+00  0.000E+00  1.11681E+02  '
               '1.531E+00  3.644E+00  7.332E-04  1.679E-03 -1.890E-04\n',
               '-\n',
               '-\n',
               '-\n',
               '-1\n',
               '-  VOLUMETRIC BUDGET FOR UNSATURATED ZONE BENEATH STREAMS AT '
               'END OF TIME STEP    30 STRESS PERIOD  23\n',
               '-  '
               '------------------------------------------------------------------------------------------------\n',
               '-\n',
               '-    CUMULATIVE VOLUMES             L**3    RATES FOR THIS '
               'TIME STEP         L**3/T\n',
               '-    ------------------                     '
               '------------------------\n',
               '-\n',
               '-\n',
               '-          STREAM LOSS =     27056566.0000            STREAM '
               'LOSS =            0.1510\n',
               '-    CHANGE IN STORAGE =       416933.9375      CHANGE IN '
               'STORAGE =       -7.6540E-03\n',
               '-       RECHARGE TO GW =     26643534.0000         RECHARGE TO '
               'GW =            0.1587\n',
               '-\n',
               '-             TOTAL IN =     27056566.0000               TOTAL '
               'IN =            0.1587\n',
               '-\n',
               '-            TOTAL OUT =     27060468.0000              TOTAL '
               'OUT =            0.1587\n',
               '-\n',
               '-             IN - OUT =        -3902.0000               IN - '
               'OUT =        2.9802E-08\n',
               '-\n',
               '-  PERCENT DISCREPANCY =           -0.00      PERCENT '
               'DISCREPANCY =             0.00\n',
               '-\n',
               '-\n',
               '-\n',
               '-1\n',
               '-  VOLUMETRIC BUDGET FOR ENTIRE MODEL AT END OF TIME STEP   '
               '30, STRESS PERIOD  23\n',
               '-  '
               '------------------------------------------------------------------------------\n',
               '-\n',
               '-     CUMULATIVE VOLUMES      L**3       RATES FOR THIS TIME '
               'STEP      L**3/T\n',
               '-     ------------------                 '
               '------------------------\n',
               '-\n',
               '-           IN:                                      IN:\n',
               '-           ---                                      ---\n',
               '-             STORAGE =    10856547.0000               STORAGE '
               '=           0.1300\n',
               '-       CONSTANT HEAD =           0.0000         CONSTANT HEAD '
               '=           0.0000\n',
               '-     HEAD DEP BOUNDS =           0.0000       HEAD DEP BOUNDS '
               '=           0.0000\n',
               '-      STREAM LEAKAGE =    26643470.0000        STREAM LEAKAGE '
               '=           0.1587\n',
               '-\n',
               '-            TOTAL IN =    37500016.0000              TOTAL IN '
               '=           0.2886\n',
               '-\n',
               '-          OUT:                                     OUT:\n',
               '-          ----                                     ----\n',
               '-             STORAGE =    15647101.0000               STORAGE '
               '=       2.4246E-02\n',
               '-       CONSTANT HEAD =           0.0000         CONSTANT HEAD '
               '=           0.0000\n',
               '-     HEAD DEP BOUNDS =    21852814.0000       HEAD DEP BOUNDS '
               '=           0.2642\n',
               '-      STREAM LEAKAGE =           0.0000        STREAM LEAKAGE '
               '=           0.0000\n',
               '-\n',
               '-           TOTAL OUT =    37499916.0000             TOTAL OUT '
               '=           0.2885\n',
               '-\n',
               '-            IN - OUT =         100.0000              IN - OUT '
               '=       1.5497E-04\n',
               '-\n',
               '- PERCENT DISCREPANCY =           0.00     PERCENT DISCREPANCY '
               '=           0.05\n',
               '-\n',
               '-\n',
               '-\n',
               '-\n',
               '-\n',
               '-\n',
               '-         TIME SUMMARY AT END OF TIME STEP   30 IN STRESS '
               'PERIOD   23\n',
               '-                    SECONDS     MINUTES      HOURS       '
               'DAYS        YEARS\n',
               '-                    '
               '-----------------------------------------------------------\n',
               '-   TIME STEP LENGTH 2.49961E+05  4166.0      69.434      '
               '2.8931     7.92080E-03\n',
               '- STRESS PERIOD TIME 2.59200E+06  43200.      720.00      '
               '30.000     8.21355E-02\n',
               '-         TOTAL TIME 5.96160E+07 9.93599E+05  16560.      '
               '690.00      1.8891    \n',
               '-1\n',
               '-1\n',
               '-                            STRESS PERIOD NO.   24, LENGTH '
               '=   2592000.    \n',
               '-                            '
               '-----------------------------------------------\n',
               '-\n',
               '-                              NUMBER OF TIME STEPS =    30\n',
               '-\n',
               '-                               MULTIPLIER FOR DELT =     '
               '1.100\n',
               '-\n',
               '-                            INITIAL TIME STEP SIZE =   '
               '15757.40    \n',
               '-\n',
               '- REUSING NON-PARAMETER GHB CELLS FROM LAST STRESS PERIOD\n',
               '-\n',
               '-      7 GHB CELLS\n',
               '- \n',
               '- SOLVING FOR HEAD \n',
               '-\n',
               '- NO OUTPUT CONTROL FOR STRESS PERIOD   24   TIME STEP    1\n',
               '- \n',
               '- SOLVING FOR HEAD \n',
               '-\n',
               '- NO OUTPUT CONTROL FOR STRESS PERIOD   24   TIME STEP    2\n',
               '- \n',
               '- SOLVING FOR HEAD \n',
               '-\n',
               '- NO OUTPUT CONTROL FOR STRESS PERIOD   24   TIME STEP    3\n',
               '- \n',
               '- SOLVING FOR HEAD \n',
               '-\n',
               '- NO OUTPUT CONTROL FOR STRESS PERIOD   24   TIME STEP    4\n',
               '- \n',
               '- SOLVING FOR HEAD \n',
               '-\n',
               '- NO OUTPUT CONTROL FOR STRESS PERIOD   24   TIME STEP    5\n',
               '- \n',
               '- SOLVING FOR HEAD \n',
               '-\n',
               '- NO OUTPUT CONTROL FOR STRESS PERIOD   24   TIME STEP    6\n',
               '- \n',
               '- SOLVING FOR HEAD \n',
               '-\n',
               '- NO OUTPUT CONTROL FOR STRESS PERIOD   24   TIME STEP    7\n',
               '- \n',
               '- SOLVING FOR HEAD \n',
               '-\n',
               '- NO OUTPUT CONTROL FOR STRESS PERIOD   24   TIME STEP    8\n',
               '- \n',
               '- SOLVING FOR HEAD \n',
               '-\n',
               '- NO OUTPUT CONTROL FOR STRESS PERIOD   24   TIME STEP    9\n',
               '- \n',
               '- SOLVING FOR HEAD \n',
               '-\n',
               '- NO OUTPUT CONTROL FOR STRESS PERIOD   24   TIME STEP   10\n',
               '- \n',
               '- SOLVING FOR HEAD \n',
               '-\n',
               '- NO OUTPUT CONTROL FOR STRESS PERIOD   24   TIME STEP   11\n',
               '- \n',
               '- SOLVING FOR HEAD \n',
               '-\n',
               '- NO OUTPUT CONTROL FOR STRESS PERIOD   24   TIME STEP   12\n',
               '- \n',
               '- SOLVING FOR HEAD \n',
               '-\n',
               '- NO OUTPUT CONTROL FOR STRESS PERIOD   24   TIME STEP   13\n',
               '- \n',
               '- SOLVING FOR HEAD \n',
               '-\n',
               '- NO OUTPUT CONTROL FOR STRESS PERIOD   24   TIME STEP   14\n',
               '- \n',
               '- SOLVING FOR HEAD \n',
               '-\n',
               '- NO OUTPUT CONTROL FOR STRESS PERIOD   24   TIME STEP   15\n',
               '- \n',
               '- SOLVING FOR HEAD \n',
               '-\n',
               '- NO OUTPUT CONTROL FOR STRESS PERIOD   24   TIME STEP   16\n',
               '- \n',
               '- SOLVING FOR HEAD \n',
               '-\n',
               '- NO OUTPUT CONTROL FOR STRESS PERIOD   24   TIME STEP   17\n',
               '- \n',
               '- SOLVING FOR HEAD \n',
               '-\n',
               '- NO OUTPUT CONTROL FOR STRESS PERIOD   24   TIME STEP   18\n',
               '- \n',
               '- SOLVING FOR HEAD \n',
               '-\n',
               '- NO OUTPUT CONTROL FOR STRESS PERIOD   24   TIME STEP   19\n',
               '- \n',
               '- SOLVING FOR HEAD \n',
               '-\n',
               '- NO OUTPUT CONTROL FOR STRESS PERIOD   24   TIME STEP   20\n',
               '- \n',
               '- SOLVING FOR HEAD \n',
               '-\n',
               '- NO OUTPUT CONTROL FOR STRESS PERIOD   24   TIME STEP   21\n',
               '- \n',
               '- SOLVING FOR HEAD \n',
               '-\n',
               '- NO OUTPUT CONTROL FOR STRESS PERIOD   24   TIME STEP   22\n',
               '- \n',
               '- SOLVING FOR HEAD \n',
               '-\n',
               '- NO OUTPUT CONTROL FOR STRESS PERIOD   24   TIME STEP   23\n',
               '- \n',
               '- SOLVING FOR HEAD \n',
               '-\n',
               '- NO OUTPUT CONTROL FOR STRESS PERIOD   24   TIME STEP   24\n',
               '- \n',
               '- SOLVING FOR HEAD \n',
               '-\n',
               '- NO OUTPUT CONTROL FOR STRESS PERIOD   24   TIME STEP   25\n',
               '- \n',
               '- SOLVING FOR HEAD \n',
               '-\n',
               '- NO OUTPUT CONTROL FOR STRESS PERIOD   24   TIME STEP   26\n',
               '- \n',
               '- SOLVING FOR HEAD \n',
               '-\n',
               '- NO OUTPUT CONTROL FOR STRESS PERIOD   24   TIME STEP   27\n',
               '- \n',
               '- SOLVING FOR HEAD \n',
               '-\n',
               '- NO OUTPUT CONTROL FOR STRESS PERIOD   24   TIME STEP   28\n',
               '- \n',
               '- SOLVING FOR HEAD \n',
               '-\n',
               '- NO OUTPUT CONTROL FOR STRESS PERIOD   24   TIME STEP   29\n',
               '- \n',
               '- SOLVING FOR HEAD \n',
               '-\n',
               '- NO OUTPUT CONTROL FOR STRESS PERIOD   24   TIME STEP   30\n',
               '-\n',
               '-\n',
               '-\n',
               '- STREAM LISTING     PERIOD     24   STEP       30\n',
               '-\n',
               '- LAYER ROW COL. STREAM  RCH.   FLOW INTO    STREAM     FLOW '
               'OUT OF   OVRLND.    DIRECT     STREAM      STREAM      '
               'STREAM     STREAM  STREAMBED   FLOW TO   CHNG. UNSAT. \n',
               '-                SEG.NO.  NO.   STRM. RCH.    LOSS       STRM. '
               'RCH.   RUNOFF     PRECIP       ET         HEAD        '
               'DEPTH      WIDTH  CONDCTNC.   WAT. TAB.\n',
               '-\n',
               '-   1    4    1     1     1    1.1630E+00  6.4382E-04   '
               '1.1623E+00  0.000E+00  0.000E+00  0.000E+00  1.40648E+02  '
               '7.979E-01  2.767E+00  4.940E-04  7.322E-04 -8.836E-05\n',
               '-   1    4    2     1     2    1.1623E+00  6.4362E-04   '
               '1.1617E+00  0.000E+00  0.000E+00  0.000E+00  1.40348E+02  '
               '7.976E-01  2.767E+00  4.939E-04  7.319E-04 -8.826E-05\n',
               '-   1    4    3     1     3    1.1617E+00  6.4342E-04   '
               '1.1611E+00  0.000E+00  0.000E+00  0.000E+00  1.40047E+02  '
               '7.974E-01  2.767E+00  4.938E-04  7.316E-04 -8.815E-05\n',
               '-   1    4    4     1     4    1.1611E+00  6.4322E-04   '
               '1.1604E+00  0.000E+00  0.000E+00  0.000E+00  1.39747E+02  '
               '7.972E-01  2.766E+00  4.938E-04  7.312E-04 -8.802E-05\n',
               '-   1    4    5     1     5    1.1604E+00  6.4302E-04   '
               '1.1598E+00  0.000E+00  0.000E+00  0.000E+00  1.39447E+02  '
               '7.970E-01  2.766E+00  4.937E-04  7.309E-04 -8.789E-05\n',
               '-   1    4    6     1     6    1.1598E+00  6.4282E-04   '
               '1.1591E+00  0.000E+00  0.000E+00  0.000E+00  1.39147E+02  '
               '7.968E-01  2.766E+00  4.936E-04  7.305E-04 -8.773E-05\n',
               '-   1    4    7     1     7    1.1591E+00  6.4262E-04   '
               '1.1585E+00  0.000E+00  0.000E+00  0.000E+00  1.38847E+02  '
               '7.966E-01  2.766E+00  4.936E-04  7.298E-04 -8.720E-05\n',
               '-   1    4    8     1     8    1.1585E+00  6.4242E-04   '
               '1.1578E+00  0.000E+00  0.000E+00  0.000E+00  1.38546E+02  '
               '7.963E-01  2.765E+00  4.935E-04  7.237E-04 -8.132E-05\n',
               '-   1    4    9     1     9    1.1578E+00  6.4222E-04   '
               '1.1572E+00  0.000E+00  0.000E+00  0.000E+00  1.38246E+02  '
               '7.961E-01  2.765E+00  4.934E-04  7.177E-04 -7.548E-05\n',
               '-   1    4   10     1    10    1.1572E+00  6.4202E-04   '
               '1.1566E+00  0.000E+00  0.000E+00  0.000E+00  1.37946E+02  '
               '7.959E-01  2.765E+00  4.933E-04  7.139E-04 -7.186E-05\n',
               '-   1    4   11     1    11    1.1566E+00  6.4182E-04   '
               '1.1559E+00  0.000E+00  0.000E+00  0.000E+00  1.37646E+02  '
               '7.957E-01  2.764E+00  4.933E-04  7.135E-04 -7.164E-05\n',
               '-   1    4   12     1    12    1.1559E+00  6.4161E-04   '
               '1.1553E+00  0.000E+00  0.000E+00  0.000E+00  1.37345E+02  '
               '7.955E-01  2.764E+00  4.932E-04  7.130E-04 -7.142E-05\n',
               '-   1    4   13     1    13    1.1553E+00  6.4141E-04   '
               '1.1546E+00  0.000E+00  0.000E+00  0.000E+00  1.37045E+02  '
               '7.952E-01  2.764E+00  4.931E-04  7.126E-04 -7.116E-05\n',
               '-   1    4   14     1    14    1.1546E+00  6.4121E-04   '
               '1.1540E+00  0.000E+00  0.000E+00  0.000E+00  1.36745E+02  '
               '7.950E-01  2.764E+00  4.931E-04  7.121E-04 -7.087E-05\n',
               '-   1    4   15     1    15    1.1540E+00  6.4101E-04   '
               '1.1534E+00  0.000E+00  0.000E+00  0.000E+00  1.36445E+02  '
               '7.948E-01  2.763E+00  4.930E-04  7.116E-04 -7.057E-05\n',
               '-   1    4   16     1    16    1.1534E+00  6.4081E-04   '
               '1.1527E+00  0.000E+00  0.000E+00  0.000E+00  1.36145E+02  '
               '7.946E-01  2.763E+00  4.929E-04  7.110E-04 -7.023E-05\n',
               '-   1    4   17     1    17    1.1527E+00  6.4061E-04   '
               '1.1521E+00  0.000E+00  0.000E+00  0.000E+00  1.35844E+02  '
               '7.944E-01  2.763E+00  4.928E-04  7.077E-04 -6.705E-05\n',
               '-   1    4   18     1    18    1.1521E+00  6.4041E-04   '
               '1.1514E+00  0.000E+00  0.000E+00  0.000E+00  1.35544E+02  '
               '7.941E-01  2.763E+00  4.928E-04  7.004E-04 -5.997E-05\n',
               '-   1    4   19     1    19    1.1514E+00  6.4021E-04   '
               '1.1508E+00  0.000E+00  0.000E+00  0.000E+00  1.35244E+02  '
               '7.939E-01  2.762E+00  4.927E-04  6.949E-04 -5.465E-05\n',
               '-   1    4   20     1    20    1.1508E+00  6.4001E-04   '
               '1.1502E+00  0.000E+00  0.000E+00  0.000E+00  1.34944E+02  '
               '7.937E-01  2.762E+00  4.926E-04  6.943E-04 -5.429E-05\n',
               '-   1    4   21     1    21    1.1502E+00  6.3981E-04   '
               '1.1495E+00  0.000E+00  0.000E+00  0.000E+00  1.34643E+02  '
               '7.935E-01  2.762E+00  4.925E-04  6.935E-04 -5.373E-05\n',
               '-   1    4   22     1    22    1.1495E+00  6.3961E-04   '
               '1.1489E+00  0.000E+00  0.000E+00  0.000E+00  1.34343E+02  '
               '7.933E-01  2.762E+00  4.925E-04  6.805E-04 -4.089E-05\n',
               '-   1    4   23     1    23    1.1489E+00  6.3941E-04   '
               '1.1482E+00  0.000E+00  0.000E+00  0.000E+00  1.34043E+02  '
               '7.930E-01  2.761E+00  4.924E-04  6.692E-04 -2.979E-05\n',
               '-   1    4   24     1    24    1.1482E+00  6.3921E-04   '
               '1.1476E+00  0.000E+00  0.000E+00  0.000E+00  1.33743E+02  '
               '7.928E-01  2.761E+00  4.923E-04  6.686E-04 -2.942E-05\n',
               '-   1    4   25     1    25    1.1476E+00  6.3901E-04   '
               '1.1470E+00  0.000E+00  0.000E+00  0.000E+00  1.33443E+02  '
               '7.926E-01  2.761E+00  4.923E-04  6.681E-04 -2.905E-05\n',
               '-   1    4   26     1    26    1.1470E+00  6.3881E-04   '
               '1.1463E+00  0.000E+00  0.000E+00  0.000E+00  1.33142E+02  '
               '7.924E-01  2.761E+00  4.922E-04  6.675E-04 -2.864E-05\n',
               '-   1    4   27     1    27    1.1463E+00  6.3861E-04   '
               '1.1457E+00  0.000E+00  0.000E+00  0.000E+00  1.32842E+02  '
               '7.922E-01  2.760E+00  4.921E-04  6.668E-04 -2.822E-05\n',
               '-   1    4   28     1    28    1.1457E+00  6.3841E-04   '
               '1.1450E+00  0.000E+00  0.000E+00  0.000E+00  1.32542E+02  '
               '7.920E-01  2.760E+00  4.920E-04  6.662E-04 -2.778E-05\n',
               '-   1    4   29     1    29    1.1450E+00  6.3821E-04   '
               '1.1444E+00  0.000E+00  0.000E+00  0.000E+00  1.32242E+02  '
               '7.917E-01  2.760E+00  4.920E-04  6.655E-04 -2.733E-05\n',
               '-   1    4   30     1    30    1.1444E+00  6.3801E-04   '
               '1.1438E+00  0.000E+00  0.000E+00  0.000E+00  1.31942E+02  '
               '7.915E-01  2.759E+00  4.919E-04  6.649E-04 -2.687E-05\n',
               '-   1    4   31     1    31    1.1438E+00  6.3781E-04   '
               '1.1431E+00  0.000E+00  0.000E+00  0.000E+00  1.31641E+02  '
               '7.913E-01  2.759E+00  4.918E-04  6.642E-04 -2.640E-05\n',
               '-   1    4   32     1    32    1.1431E+00  6.3761E-04   '
               '1.1425E+00  0.000E+00  0.000E+00  0.000E+00  1.31341E+02  '
               '7.911E-01  2.759E+00  4.918E-04  6.635E-04 -2.591E-05\n',
               '-   1    4   33     1    33    1.1425E+00  6.3741E-04   '
               '1.1419E+00  0.000E+00  0.000E+00  0.000E+00  1.31041E+02  '
               '7.909E-01  2.759E+00  4.917E-04  6.628E-04 -2.542E-05\n',
               '-   1    4   34     1    34    1.1419E+00  6.3722E-04   '
               '1.1412E+00  0.000E+00  0.000E+00  0.000E+00  1.30741E+02  '
               '7.906E-01  2.758E+00  4.916E-04  6.621E-04 -2.491E-05\n',
               '-   1    4   35     1    35    1.1412E+00  6.3702E-04   '
               '1.1406E+00  0.000E+00  0.000E+00  0.000E+00  1.30440E+02  '
               '7.904E-01  2.758E+00  4.916E-04  6.614E-04 -2.439E-05\n',
               '-   1    4   36     1    36    1.1406E+00  6.3682E-04   '
               '1.1399E+00  0.000E+00  0.000E+00  0.000E+00  1.30140E+02  '
               '7.902E-01  2.758E+00  4.915E-04  6.607E-04 -2.386E-05\n',
               '-   1    4   37     1    37    1.1399E+00  6.3662E-04   '
               '1.1393E+00  0.000E+00  0.000E+00  0.000E+00  1.29840E+02  '
               '7.900E-01  2.758E+00  4.914E-04  6.599E-04 -2.333E-05\n',
               '-   1    4   38     1    38    1.1393E+00  6.3642E-04   '
               '1.1387E+00  0.000E+00  0.000E+00  0.000E+00  1.29540E+02  '
               '7.898E-01  2.757E+00  4.913E-04  6.592E-04 -2.278E-05\n',
               '-   1    4   39     1    39    1.1387E+00  6.3622E-04   '
               '1.1380E+00  0.000E+00  0.000E+00  0.000E+00  1.29240E+02  '
               '7.895E-01  2.757E+00  4.913E-04  6.584E-04 -2.223E-05\n',
               '-   1    4   40     1    40    1.1380E+00  6.3602E-04   '
               '1.1374E+00  0.000E+00  0.000E+00  0.000E+00  1.28939E+02  '
               '7.893E-01  2.757E+00  4.912E-04  6.577E-04 -2.166E-05\n',
               '-   1    4   41     1    41    1.1374E+00  6.3582E-04   '
               '1.1368E+00  0.000E+00  0.000E+00  0.000E+00  1.28639E+02  '
               '7.891E-01  2.757E+00  4.911E-04  6.569E-04 -2.109E-05\n',
               '-   1    4   42     1    42    1.1368E+00  6.3562E-04   '
               '1.1361E+00  0.000E+00  0.000E+00  0.000E+00  1.28339E+02  '
               '7.889E-01  2.756E+00  4.911E-04  6.561E-04 -2.052E-05\n',
               '-   1    4   43     1    43    1.1361E+00  6.3542E-04   '
               '1.1355E+00  0.000E+00  0.000E+00  0.000E+00  1.28039E+02  '
               '7.887E-01  2.756E+00  4.910E-04  6.554E-04 -1.993E-05\n',
               '-   1    4   44     1    44    1.1355E+00  6.3522E-04   '
               '1.1349E+00  0.000E+00  0.000E+00  0.000E+00  1.27738E+02  '
               '7.885E-01  2.756E+00  4.909E-04  6.546E-04 -1.934E-05\n',
               '-   1    4   45     1    45    1.1349E+00  6.3502E-04   '
               '1.1342E+00  0.000E+00  0.000E+00  0.000E+00  1.27438E+02  '
               '7.882E-01  2.756E+00  4.908E-04  6.538E-04 -1.875E-05\n',
               '-   1    4   46     1    46    1.1342E+00  6.3483E-04   '
               '1.1336E+00  0.000E+00  0.000E+00  0.000E+00  1.27138E+02  '
               '7.880E-01  2.755E+00  4.908E-04  6.530E-04 -1.815E-05\n',
               '-   1    4   47     1    47    1.1336E+00  6.3463E-04   '
               '1.1330E+00  0.000E+00  0.000E+00  0.000E+00  1.26838E+02  '
               '7.878E-01  2.755E+00  4.907E-04  6.522E-04 -1.755E-05\n',
               '-   1    4   48     1    48    1.1330E+00  6.3443E-04   '
               '1.1323E+00  0.000E+00  0.000E+00  0.000E+00  1.26538E+02  '
               '7.876E-01  2.755E+00  4.906E-04  6.514E-04 -1.694E-05\n',
               '-   1    4   49     1    49    1.1323E+00  6.3423E-04   '
               '1.1317E+00  0.000E+00  0.000E+00  0.000E+00  1.26237E+02  '
               '7.874E-01  2.755E+00  4.906E-04  6.506E-04 -1.633E-05\n',
               '-   1    4   50     1    50    1.1317E+00  6.3403E-04   '
               '1.1310E+00  0.000E+00  0.000E+00  0.000E+00  1.25937E+02  '
               '7.871E-01  2.754E+00  4.905E-04  6.497E-04 -1.571E-05\n',
               '-   1    4   51     1    51    1.1310E+00  6.3383E-04   '
               '1.1304E+00  0.000E+00  0.000E+00  0.000E+00  1.25637E+02  '
               '7.869E-01  2.754E+00  4.904E-04  6.489E-04 -1.510E-05\n',
               '-   1    4   52     1    52    1.1304E+00  6.3363E-04   '
               '1.1298E+00  0.000E+00  0.000E+00  0.000E+00  1.25337E+02  '
               '7.867E-01  2.754E+00  4.903E-04  6.481E-04 -1.448E-05\n',
               '-   1    4   53     1    53    1.1298E+00  6.3343E-04   '
               '1.1291E+00  0.000E+00  0.000E+00  0.000E+00  1.25036E+02  '
               '7.865E-01  2.753E+00  4.903E-04  6.473E-04 -1.385E-05\n',
               '-   1    4   54     1    54    1.1291E+00  6.3324E-04   '
               '1.1285E+00  0.000E+00  0.000E+00  0.000E+00  1.24736E+02  '
               '7.863E-01  2.753E+00  4.902E-04  6.465E-04 -1.323E-05\n',
               '-   1    4   55     1    55    1.1285E+00  6.3304E-04   '
               '1.1279E+00  0.000E+00  0.000E+00  0.000E+00  1.24436E+02  '
               '7.861E-01  2.753E+00  4.901E-04  6.456E-04 -1.260E-05\n',
               '-   1    4   56     1    56    1.1279E+00  6.3284E-04   '
               '1.1272E+00  0.000E+00  0.000E+00  0.000E+00  1.24136E+02  '
               '7.858E-01  2.753E+00  4.901E-04  6.448E-04 -1.197E-05\n',
               '-   1    4   57     1    57    1.1272E+00  6.3264E-04   '
               '1.1266E+00  0.000E+00  0.000E+00  0.000E+00  1.23836E+02  '
               '7.856E-01  2.752E+00  4.900E-04  6.440E-04 -1.134E-05\n',
               '-   1    4   58     1    58    1.1266E+00  6.3244E-04   '
               '1.1260E+00  0.000E+00  0.000E+00  0.000E+00  1.23535E+02  '
               '7.854E-01  2.752E+00  4.899E-04  6.432E-04 -1.071E-05\n',
               '-   1    4   59     1    59    1.1260E+00  6.3224E-04   '
               '1.1254E+00  0.000E+00  0.000E+00  0.000E+00  1.23235E+02  '
               '7.852E-01  2.752E+00  4.898E-04  6.423E-04 -1.008E-05\n',
               '-   1    4   60     1    60    1.1254E+00  6.3205E-04   '
               '1.1247E+00  0.000E+00  0.000E+00  0.000E+00  1.22935E+02  '
               '7.850E-01  2.752E+00  4.898E-04  6.415E-04 -9.446E-06\n',
               '-   1    4   61     1    61    1.1247E+00  6.3185E-04   '
               '1.1241E+00  0.000E+00  0.000E+00  0.000E+00  1.22635E+02  '
               '7.847E-01  2.751E+00  4.897E-04  6.407E-04 -8.811E-06\n',
               '-   1    4   62     1    62    1.1241E+00  6.3165E-04   '
               '1.1235E+00  0.000E+00  0.000E+00  0.000E+00  1.22335E+02  '
               '7.845E-01  2.751E+00  4.896E-04  6.398E-04 -8.177E-06\n',
               '-   1    4   63     1    63    1.1235E+00  6.3145E-04   '
               '1.1228E+00  0.000E+00  0.000E+00  0.000E+00  1.22034E+02  '
               '7.843E-01  2.751E+00  4.896E-04  6.390E-04 -7.543E-06\n',
               '-   1    4   64     1    64    1.1228E+00  6.3125E-04   '
               '1.1222E+00  0.000E+00  0.000E+00  0.000E+00  1.21734E+02  '
               '7.841E-01  2.751E+00  4.895E-04  6.382E-04 -6.909E-06\n',
               '-   1    4   65     1    65    1.1222E+00  6.3106E-04   '
               '1.1216E+00  0.000E+00  0.000E+00  0.000E+00  1.21434E+02  '
               '7.839E-01  2.750E+00  4.894E-04  6.373E-04 -6.277E-06\n',
               '-   1    4   66     1    66    1.1216E+00  6.3086E-04   '
               '1.1209E+00  0.000E+00  0.000E+00  0.000E+00  1.21134E+02  '
               '7.837E-01  2.750E+00  4.893E-04  6.365E-04 -5.648E-06\n',
               '-   1    4   67     1    67    1.1209E+00  6.3066E-04   '
               '1.1203E+00  0.000E+00  0.000E+00  0.000E+00  1.20833E+02  '
               '7.834E-01  2.750E+00  4.893E-04  6.357E-04 -5.022E-06\n',
               '-   1    4   68     1    68    1.1203E+00  6.3046E-04   '
               '1.1197E+00  0.000E+00  0.000E+00  0.000E+00  1.20533E+02  '
               '7.832E-01  2.750E+00  4.892E-04  6.349E-04 -4.402E-06\n',
               '-   1    4   69     1    69    1.1197E+00  6.3026E-04   '
               '1.1190E+00  0.000E+00  0.000E+00  0.000E+00  1.20233E+02  '
               '7.830E-01  2.749E+00  4.891E-04  6.341E-04 -3.788E-06\n',
               '-   1    4   70     1    70    1.1190E+00  6.3007E-04   '
               '1.1184E+00  0.000E+00  0.000E+00  0.000E+00  1.19933E+02  '
               '7.828E-01  2.749E+00  4.891E-04  6.332E-04 -3.182E-06\n',
               '-   1    4   71     1    71    1.1184E+00  6.2987E-04   '
               '1.1178E+00  0.000E+00  0.000E+00  0.000E+00  1.19633E+02  '
               '7.826E-01  2.749E+00  4.890E-04  6.325E-04 -2.588E-06\n',
               '-   1    4   72     1    72    1.1178E+00  6.2967E-04   '
               '1.1171E+00  0.000E+00  0.000E+00  0.000E+00  1.19332E+02  '
               '7.823E-01  2.749E+00  4.889E-04  6.317E-04 -2.008E-06\n',
               '-   1    4   73     1    73    1.1171E+00  6.2947E-04   '
               '1.1165E+00  0.000E+00  0.000E+00  0.000E+00  1.19032E+02  '
               '7.821E-01  2.748E+00  4.888E-04  6.309E-04 -1.447E-06\n',
               '-   1    4   74     1    74    1.1165E+00  6.2928E-04   '
               '1.1159E+00  0.000E+00  0.000E+00  0.000E+00  1.18732E+02  '
               '7.819E-01  2.748E+00  4.888E-04  6.302E-04 -9.091E-07\n',
               '-   1    4   75     1    75    1.1159E+00  6.2908E-04   '
               '1.1153E+00  0.000E+00  0.000E+00  0.000E+00  1.18432E+02  '
               '7.817E-01  2.748E+00  4.887E-04  6.295E-04 -3.972E-07\n',
               '-   1    4   76     1    76    1.1153E+00  6.2888E-04   '
               '1.1146E+00  0.000E+00  0.000E+00  0.000E+00  1.18131E+02  '
               '7.815E-01  2.747E+00  4.886E-04  6.288E-04  9.225E-08\n',
               '-   1    4   77     1    77    1.1146E+00  6.2868E-04   '
               '1.1140E+00  0.000E+00  0.000E+00  0.000E+00  1.17831E+02  '
               '7.813E-01  2.747E+00  4.886E-04  6.365E-04 -7.820E-06\n',
               '-   1    4   78     1    78    1.1140E+00  6.2849E-04   '
               '1.1134E+00  0.000E+00  0.000E+00  0.000E+00  1.17531E+02  '
               '7.810E-01  2.747E+00  4.885E-04  6.389E-04 -1.039E-05\n',
               '-   1    4   79     1    79    1.1134E+00  6.2829E-04   '
               '1.1127E+00  0.000E+00  0.000E+00  0.000E+00  1.17231E+02  '
               '7.808E-01  2.747E+00  4.884E-04  6.533E-04 -2.501E-05\n',
               '-   1    4   80     1    80    1.1127E+00  6.2809E-04   '
               '1.1121E+00  0.000E+00  0.000E+00  0.000E+00  1.16931E+02  '
               '7.806E-01  2.746E+00  4.883E-04  6.591E-04 -3.101E-05\n',
               '-   1    4   81     1    81    1.1121E+00  6.2789E-04   '
               '1.1115E+00  0.000E+00  0.000E+00  0.000E+00  1.16630E+02  '
               '7.804E-01  2.746E+00  4.883E-04  6.587E-04 -3.080E-05\n',
               '-   1    4   82     1    82    1.1115E+00  6.2770E-04   '
               '1.1109E+00  0.000E+00  0.000E+00  0.000E+00  1.16330E+02  '
               '7.802E-01  2.746E+00  4.882E-04  6.584E-04 -3.067E-05\n',
               '-   1    4   83     1    83    1.1109E+00  6.2750E-04   '
               '1.1102E+00  0.000E+00  0.000E+00  0.000E+00  1.16030E+02  '
               '7.799E-01  2.746E+00  4.881E-04  6.581E-04 -3.063E-05\n',
               '-   1    4   84     1    84    1.1102E+00  6.2730E-04   '
               '1.1096E+00  0.000E+00  0.000E+00  0.000E+00  1.15730E+02  '
               '7.797E-01  2.745E+00  4.881E-04  6.580E-04 -3.069E-05\n',
               '-   1    4   85     1    85    1.1096E+00  6.2711E-04   '
               '1.1090E+00  0.000E+00  0.000E+00  0.000E+00  1.15430E+02  '
               '7.795E-01  2.745E+00  4.880E-04  6.699E-04 -4.281E-05\n',
               '-   1    4   86     1    86    1.1090E+00  6.2691E-04   '
               '1.1084E+00  0.000E+00  0.000E+00  0.000E+00  1.15129E+02  '
               '7.793E-01  2.745E+00  4.879E-04  6.718E-04 -4.488E-05\n',
               '-   1    4   87     1    87    1.1084E+00  6.2671E-04   '
               '1.1077E+00  0.000E+00  0.000E+00  0.000E+00  1.14829E+02  '
               '7.791E-01  2.745E+00  4.878E-04  6.721E-04 -4.543E-05\n',
               '-   1    4   88     1    88    1.1077E+00  6.2651E-04   '
               '1.1071E+00  0.000E+00  0.000E+00  0.000E+00  1.14529E+02  '
               '7.789E-01  2.744E+00  4.878E-04  6.727E-04 -4.617E-05\n',
               '-   1    4   89     1    89    1.1071E+00  6.2632E-04   '
               '1.1065E+00  0.000E+00  0.000E+00  0.000E+00  1.14229E+02  '
               '7.786E-01  2.744E+00  4.877E-04  6.734E-04 -4.711E-05\n',
               '-   1    4   90     1    90    1.1065E+00  6.2612E-04   '
               '1.1058E+00  0.000E+00  0.000E+00  0.000E+00  1.13928E+02  '
               '7.784E-01  2.744E+00  4.876E-04  6.744E-04 -4.828E-05\n',
               '-   1    4   91     1    91    1.1058E+00  6.2592E-04   '
               '1.1052E+00  0.000E+00  0.000E+00  0.000E+00  1.13628E+02  '
               '7.782E-01  2.744E+00  4.876E-04  6.756E-04 -4.969E-05\n',
               '-   1    4   92     1    92    1.1052E+00  6.2573E-04   '
               '1.1046E+00  0.000E+00  0.000E+00  0.000E+00  1.13328E+02  '
               '7.780E-01  2.743E+00  4.875E-04  6.936E-04 -6.789E-05\n',
               '-   1    4   93     1    93    1.1046E+00  6.2553E-04   '
               '1.1040E+00  0.000E+00  0.000E+00  0.000E+00  1.13028E+02  '
               '7.778E-01  2.743E+00  4.874E-04  6.955E-04 -6.998E-05\n',
               '-   1    4   94     1    94    1.1040E+00  6.2533E-04   '
               '1.1033E+00  0.000E+00  0.000E+00  0.000E+00  1.12728E+02  '
               '7.775E-01  2.743E+00  4.873E-04  6.978E-04 -7.242E-05\n',
               '-   1    4   95     1    95    1.1033E+00  6.2514E-04   '
               '1.1027E+00  0.000E+00  0.000E+00  0.000E+00  1.12427E+02  '
               '7.773E-01  2.743E+00  4.873E-04  7.004E-04 -7.526E-05\n',
               '-   1    4   96     1    96    1.1027E+00  6.2494E-04   '
               '1.1021E+00  0.000E+00  0.000E+00  0.000E+00  1.12127E+02  '
               '7.771E-01  2.742E+00  4.872E-04  7.035E-04 -7.854E-05\n',
               '-   1    4   97     1    97    1.1021E+00  6.2474E-04   '
               '1.1015E+00  0.000E+00  0.000E+00  0.000E+00  1.11827E+02  '
               '7.769E-01  2.742E+00  4.871E-04  7.070E-04 -8.227E-05\n',
               '-   1    4   98     1    98    1.1015E+00  6.2455E-04   '
               '1.1008E+00  0.000E+00  0.000E+00  0.000E+00  1.11527E+02  '
               '7.767E-01  2.742E+00  4.871E-04  7.110E-04 -8.645E-05\n',
               '-   1    4   99     1    99    1.1008E+00  6.2435E-04   '
               '1.1002E+00  0.000E+00  0.000E+00  0.000E+00  1.11226E+02  '
               '7.765E-01  2.741E+00  4.870E-04  7.154E-04 -9.105E-05\n',
               '-   1    4  100     1   100    1.1002E+00  6.2416E-04   '
               '1.0996E+00  0.000E+00  0.000E+00  0.000E+00  1.10926E+02  '
               '7.762E-01  2.741E+00  4.869E-04  7.201E-04 -9.599E-05\n',
               '-\n',
               '-\n',
               '-\n',
               '-1\n',
               '-  VOLUMETRIC BUDGET FOR UNSATURATED ZONE BENEATH STREAMS AT '
               'END OF TIME STEP    30 STRESS PERIOD  24\n',
               '-  '
               '------------------------------------------------------------------------------------------------\n',
               '-\n',
               '-    CUMULATIVE VOLUMES             L**3    RATES FOR THIS '
               'TIME STEP         L**3/T\n',
               '-    ------------------                     '
               '------------------------\n',
               '-\n',
               '-\n',
               '-          STREAM LOSS =     27221024.0000            STREAM '
               'LOSS =        6.3395E-02\n',
               '-    CHANGE IN STORAGE =       343531.5938      CHANGE IN '
               'STORAGE =       -3.6841E-03\n',
               '-       RECHARGE TO GW =     26881232.0000         RECHARGE TO '
               'GW =        6.7079E-02\n',
               '-\n',
               '-             TOTAL IN =     27221024.0000               TOTAL '
               'IN =        6.7079E-02\n',
               '-\n',
               '-            TOTAL OUT =     27224764.0000              TOTAL '
               'OUT =        6.7079E-02\n',
               '-\n',
               '-             IN - OUT =        -3740.0000               IN - '
               'OUT =        2.2352E-08\n',
               '-\n',
               '-  PERCENT DISCREPANCY =           -0.00      PERCENT '
               'DISCREPANCY =             0.00\n',
               '-\n',
               '-\n',
               '-\n',
               '-1\n',
               '-  VOLUMETRIC BUDGET FOR ENTIRE MODEL AT END OF TIME STEP   '
               '30, STRESS PERIOD  24\n',
               '-  '
               '------------------------------------------------------------------------------\n',
               '-\n',
               '-     CUMULATIVE VOLUMES      L**3       RATES FOR THIS TIME '
               'STEP      L**3/T\n',
               '-     ------------------                 '
               '------------------------\n',
               '-\n',
               '-           IN:                                      IN:\n',
               '-           ---                                      ---\n',
               '-             STORAGE =    11306988.0000               STORAGE '
               '=           0.1855\n',
               '-       CONSTANT HEAD =           0.0000         CONSTANT HEAD '
               '=           0.0000\n',
               '-     HEAD DEP BOUNDS =           0.0000       HEAD DEP BOUNDS '
               '=           0.0000\n',
               '-      STREAM LEAKAGE =    26881188.0000        STREAM LEAKAGE '
               '=       6.7079E-02\n',
               '-\n',
               '-            TOTAL IN =    38188176.0000              TOTAL IN '
               '=           0.2525\n',
               '-\n',
               '-          OUT:                                     OUT:\n',
               '-          ----                                     ----\n',
               '-             STORAGE =    15666211.0000               STORAGE '
               '=       6.4418E-04\n',
               '-       CONSTANT HEAD =           0.0000         CONSTANT HEAD '
               '=           0.0000\n',
               '-     HEAD DEP BOUNDS =    22521818.0000       HEAD DEP BOUNDS '
               '=           0.2518\n',
               '-      STREAM LEAKAGE =           0.0000        STREAM LEAKAGE '
               '=           0.0000\n',
               '-\n',
               '-           TOTAL OUT =    38188028.0000             TOTAL OUT '
               '=           0.2524\n',
               '-\n',
               '-            IN - OUT =         148.0000              IN - OUT '
               '=       1.0100E-04\n',
               '-\n',
               '- PERCENT DISCREPANCY =           0.00     PERCENT DISCREPANCY '
               '=           0.04\n',
               '-\n',
               '-\n',
               '-\n',
               '-\n',
               '-\n',
               '-\n',
               '-         TIME SUMMARY AT END OF TIME STEP   30 IN STRESS '
               'PERIOD   24\n',
               '-                    SECONDS     MINUTES      HOURS       '
               'DAYS        YEARS\n',
               '-                    '
               '-----------------------------------------------------------\n',
               '-   TIME STEP LENGTH 2.49961E+05  4166.0      69.434      '
               '2.8931     7.92080E-03\n',
               '- STRESS PERIOD TIME 2.59200E+06  43200.      720.00      '
               '30.000     8.21355E-02\n',
               '-         TOTAL TIME 6.22080E+07 1.03680E+06  17280.      '
               '720.00      1.9713    \n',
               '-1\n',
               '-1\n',
               '-                            STRESS PERIOD NO.   25, LENGTH '
               '=   2592000.    \n',
               '-                            '
               '-----------------------------------------------\n',
               '-\n',
               '-                              NUMBER OF TIME STEPS =    30\n',
               '-\n',
               '-                               MULTIPLIER FOR DELT =     '
               '1.100\n',
               '-\n',
               '-                            INITIAL TIME STEP SIZE =   '
               '15757.40    \n',
               '-\n',
               '- REUSING NON-PARAMETER GHB CELLS FROM LAST STRESS PERIOD\n',
               '-\n',
               '-      7 GHB CELLS\n',
               '- \n',
               '- SOLVING FOR HEAD \n',
               '-\n',
               '- NO OUTPUT CONTROL FOR STRESS PERIOD   25   TIME STEP    1\n',
               '- \n',
               '- SOLVING FOR HEAD \n',
               '-\n',
               '- NO OUTPUT CONTROL FOR STRESS PERIOD   25   TIME STEP    2\n',
               '- \n',
               '- SOLVING FOR HEAD \n',
               '-\n',
               '- NO OUTPUT CONTROL FOR STRESS PERIOD   25   TIME STEP    3\n',
               '- \n',
               '- SOLVING FOR HEAD \n',
               '-\n',
               '- NO OUTPUT CONTROL FOR STRESS PERIOD   25   TIME STEP    4\n',
               '- \n',
               '- SOLVING FOR HEAD \n',
               '-\n',
               '- NO OUTPUT CONTROL FOR STRESS PERIOD   25   TIME STEP    5\n',
               '- \n',
               '- SOLVING FOR HEAD \n',
               '-\n',
               '- NO OUTPUT CONTROL FOR STRESS PERIOD   25   TIME STEP    6\n',
               '- \n',
               '- SOLVING FOR HEAD \n',
               '-\n',
               '- NO OUTPUT CONTROL FOR STRESS PERIOD   25   TIME STEP    7\n',
               '- \n',
               '- SOLVING FOR HEAD \n',
               '-\n',
               '- NO OUTPUT CONTROL FOR STRESS PERIOD   25   TIME STEP    8\n',
               '- \n',
               '- SOLVING FOR HEAD \n',
               '-\n',
               '- NO OUTPUT CONTROL FOR STRESS PERIOD   25   TIME STEP    9\n',
               '- \n',
               '- SOLVING FOR HEAD \n',
               '-\n',
               '- NO OUTPUT CONTROL FOR STRESS PERIOD   25   TIME STEP   10\n',
               '- \n',
               '- SOLVING FOR HEAD \n',
               '-\n',
               '- NO OUTPUT CONTROL FOR STRESS PERIOD   25   TIME STEP   11\n',
               '- \n',
               '- SOLVING FOR HEAD \n',
               '-\n',
               '- NO OUTPUT CONTROL FOR STRESS PERIOD   25   TIME STEP   12\n',
               '- \n',
               '- SOLVING FOR HEAD \n',
               '-\n',
               '- NO OUTPUT CONTROL FOR STRESS PERIOD   25   TIME STEP   13\n',
               '- \n',
               '- SOLVING FOR HEAD \n',
               '-\n',
               '- NO OUTPUT CONTROL FOR STRESS PERIOD   25   TIME STEP   14\n',
               '- \n',
               '- SOLVING FOR HEAD \n',
               '-\n',
               '- NO OUTPUT CONTROL FOR STRESS PERIOD   25   TIME STEP   15\n',
               '- \n',
               '- SOLVING FOR HEAD \n',
               '-\n',
               '- NO OUTPUT CONTROL FOR STRESS PERIOD   25   TIME STEP   16\n',
               '- \n',
               '- SOLVING FOR HEAD \n',
               '-\n',
               '- NO OUTPUT CONTROL FOR STRESS PERIOD   25   TIME STEP   17\n',
               '- \n',
               '- SOLVING FOR HEAD \n',
               '-\n',
               '- NO OUTPUT CONTROL FOR STRESS PERIOD   25   TIME STEP   18\n',
               '- \n',
               '- SOLVING FOR HEAD \n',
               '-\n',
               '- NO OUTPUT CONTROL FOR STRESS PERIOD   25   TIME STEP   19\n',
               '- \n',
               '- SOLVING FOR HEAD \n',
               '-\n',
               '- NO OUTPUT CONTROL FOR STRESS PERIOD   25   TIME STEP   20\n',
               '- \n',
               '- SOLVING FOR HEAD \n',
               '-\n',
               '- NO OUTPUT CONTROL FOR STRESS PERIOD   25   TIME STEP   21\n',
               '- \n',
               '- SOLVING FOR HEAD \n',
               '-\n',
               '- NO OUTPUT CONTROL FOR STRESS PERIOD   25   TIME STEP   22\n',
               '- \n',
               '- SOLVING FOR HEAD \n',
               '-\n',
               '- NO OUTPUT CONTROL FOR STRESS PERIOD   25   TIME STEP   23\n',
               '- \n',
               '- SOLVING FOR HEAD \n',
               '-\n',
               '- NO OUTPUT CONTROL FOR STRESS PERIOD   25   TIME STEP   24\n',
               '- \n',
               '- SOLVING FOR HEAD \n',
               '-\n',
               '- NO OUTPUT CONTROL FOR STRESS PERIOD   25   TIME STEP   25\n',
               '- \n',
               '- SOLVING FOR HEAD \n',
               '-\n',
               '- NO OUTPUT CONTROL FOR STRESS PERIOD   25   TIME STEP   26\n',
               '- \n',
               '- SOLVING FOR HEAD \n',
               '-\n',
               '- NO OUTPUT CONTROL FOR STRESS PERIOD   25   TIME STEP   27\n',
               '- \n',
               '- SOLVING FOR HEAD \n',
               '-\n',
               '- NO OUTPUT CONTROL FOR STRESS PERIOD   25   TIME STEP   28\n',
               '- \n',
               '- SOLVING FOR HEAD \n',
               '-\n',
               '- NO OUTPUT CONTROL FOR STRESS PERIOD   25   TIME STEP   29\n',
               '- \n',
               '- SOLVING FOR HEAD \n',
               '-\n',
               '- OUTPUT CONTROL FOR STRESS PERIOD   25   TIME STEP   30\n',
               '-    PRINT HEAD FOR ALL LAYERS\n',
               '-    PRINT BUDGET\n',
               '-    SAVE BUDGET\n',
               '-\n',
               '-  HEAD DEP BOUNDS   PERIOD   25   STEP  30\n',
               '- BOUNDARY      1   LAYER   1   ROW     1   COL   100   RATE   '
               '-3.620919E-02\n',
               '- BOUNDARY      2   LAYER   1   ROW     2   COL   100   RATE   '
               '-3.620796E-02\n',
               '- BOUNDARY      3   LAYER   1   ROW     3   COL   100   RATE   '
               '-3.585364E-02\n',
               '- BOUNDARY      4   LAYER   1   ROW     4   COL   100   RATE   '
               '-2.553659E-02\n',
               '- BOUNDARY      5   LAYER   1   ROW     5   COL   100   RATE   '
               '-3.585364E-02\n',
               '- BOUNDARY      6   LAYER   1   ROW     6   COL   100   RATE   '
               '-3.620796E-02\n',
               '- BOUNDARY      7   LAYER   1   ROW     7   COL   100   RATE   '
               '-3.620919E-02\n',
               '-\n',
               '-\n',
               '-\n',
               '- STREAM LISTING     PERIOD     25   STEP       30\n',
               '-\n',
               '- LAYER ROW COL. STREAM  RCH.   FLOW INTO    STREAM     FLOW '
               'OUT OF   OVRLND.    DIRECT     STREAM      STREAM      '
               'STREAM     STREAM  STREAMBED   FLOW TO   CHNG. UNSAT. \n',
               '-                SEG.NO.  NO.   STRM. RCH.    LOSS       STRM. '
               'RCH.   RUNOFF     PRECIP       ET         HEAD        '
               'DEPTH      WIDTH  CONDCTNC.   WAT. TAB.\n',
               '-\n',
               '-   1    4    1     1     1    3.2900E-01  3.5971E-04   '
               '3.2864E-01  0.000E+00  0.000E+00  0.000E+00  1.40296E+02  '
               '4.461E-01  2.346E+00  3.792E-04  4.148E-04 -5.505E-05\n',
               '-   1    4    2     1     2    3.2864E-01  3.5957E-04   '
               '3.2828E-01  0.000E+00  0.000E+00  0.000E+00  1.39996E+02  '
               '4.459E-01  2.346E+00  3.791E-04  4.146E-04 -5.499E-05\n',
               '-   1    4    3     1     3    3.2828E-01  3.5943E-04   '
               '3.2792E-01  0.000E+00  0.000E+00  0.000E+00  1.39696E+02  '
               '4.457E-01  2.346E+00  3.790E-04  4.143E-04 -5.491E-05\n',
               '-   1    4    4     1     4    3.2792E-01  3.5929E-04   '
               '3.2756E-01  0.000E+00  0.000E+00  0.000E+00  1.39395E+02  '
               '4.455E-01  2.345E+00  3.790E-04  4.058E-04 -4.654E-05\n',
               '-   1    4    5     1     5    3.2756E-01  3.5916E-04   '
               '3.2720E-01  0.000E+00  0.000E+00  0.000E+00  1.39095E+02  '
               '4.453E-01  2.345E+00  3.789E-04  3.907E-04 -3.158E-05\n',
               '-   1    4    6     1     6    3.2720E-01  3.5902E-04   '
               '3.2684E-01  0.000E+00  0.000E+00  0.000E+00  1.38795E+02  '
               '4.451E-01  2.345E+00  3.788E-04  3.903E-04 -3.127E-05\n',
               '-   1    4    7     1     7    3.2684E-01  3.5888E-04   '
               '3.2648E-01  0.000E+00  0.000E+00  0.000E+00  1.38495E+02  '
               '4.449E-01  2.345E+00  3.788E-04  3.901E-04 -3.119E-05\n',
               '-   1    4    8     1     8    3.2648E-01  3.5874E-04   '
               '3.2612E-01  0.000E+00  0.000E+00  0.000E+00  1.38195E+02  '
               '4.447E-01  2.345E+00  3.787E-04  3.898E-04 -3.108E-05\n',
               '-   1    4    9     1     9    3.2612E-01  3.5860E-04   '
               '3.2577E-01  0.000E+00  0.000E+00  0.000E+00  1.37894E+02  '
               '4.445E-01  2.344E+00  3.787E-04  3.895E-04 -3.095E-05\n',
               '-   1    4   10     1    10    3.2577E-01  3.5846E-04   '
               '3.2541E-01  0.000E+00  0.000E+00  0.000E+00  1.37594E+02  '
               '4.443E-01  2.344E+00  3.786E-04  3.893E-04 -3.081E-05\n',
               '-   1    4   11     1    11    3.2541E-01  3.5832E-04   '
               '3.2505E-01  0.000E+00  0.000E+00  0.000E+00  1.37294E+02  '
               '4.441E-01  2.344E+00  3.785E-04  3.890E-04 -3.065E-05\n',
               '-   1    4   12     1    12    3.2505E-01  3.5818E-04   '
               '3.2469E-01  0.000E+00  0.000E+00  0.000E+00  1.36994E+02  '
               '4.439E-01  2.344E+00  3.785E-04  3.887E-04 -3.047E-05\n',
               '-   1    4   13     1    13    3.2469E-01  3.5804E-04   '
               '3.2433E-01  0.000E+00  0.000E+00  0.000E+00  1.36694E+02  '
               '4.437E-01  2.343E+00  3.784E-04  3.883E-04 -3.029E-05\n',
               '-   1    4   14     1    14    3.2433E-01  3.5790E-04   '
               '3.2397E-01  0.000E+00  0.000E+00  0.000E+00  1.36393E+02  '
               '4.434E-01  2.343E+00  3.783E-04  3.880E-04 -3.009E-05\n',
               '-   1    4   15     1    15    3.2397E-01  3.5776E-04   '
               '3.2362E-01  0.000E+00  0.000E+00  0.000E+00  1.36093E+02  '
               '4.432E-01  2.343E+00  3.783E-04  3.876E-04 -2.987E-05\n',
               '-   1    4   16     1    16    3.2362E-01  3.5762E-04   '
               '3.2326E-01  0.000E+00  0.000E+00  0.000E+00  1.35793E+02  '
               '4.430E-01  2.343E+00  3.782E-04  3.873E-04 -2.964E-05\n',
               '-   1    4   17     1    17    3.2326E-01  3.5749E-04   '
               '3.2290E-01  0.000E+00  0.000E+00  0.000E+00  1.35493E+02  '
               '4.428E-01  2.342E+00  3.781E-04  3.869E-04 -2.939E-05\n',
               '-   1    4   18     1    18    3.2290E-01  3.5735E-04   '
               '3.2254E-01  0.000E+00  0.000E+00  0.000E+00  1.35193E+02  '
               '4.426E-01  2.342E+00  3.781E-04  3.865E-04 -2.914E-05\n',
               '-   1    4   19     1    19    3.2254E-01  3.5721E-04   '
               '3.2219E-01  0.000E+00  0.000E+00  0.000E+00  1.34892E+02  '
               '4.424E-01  2.342E+00  3.780E-04  3.861E-04 -2.886E-05\n',
               '-   1    4   20     1    20    3.2219E-01  3.5707E-04   '
               '3.2183E-01  0.000E+00  0.000E+00  0.000E+00  1.34592E+02  '
               '4.422E-01  2.342E+00  3.779E-04  3.856E-04 -2.858E-05\n',
               '-   1    4   21     1    21    3.2183E-01  3.5693E-04   '
               '3.2147E-01  0.000E+00  0.000E+00  0.000E+00  1.34292E+02  '
               '4.420E-01  2.341E+00  3.779E-04  3.852E-04 -2.828E-05\n',
               '-   1    4   22     1    22    3.2147E-01  3.5679E-04   '
               '3.2112E-01  0.000E+00  0.000E+00  0.000E+00  1.33992E+02  '
               '4.418E-01  2.341E+00  3.778E-04  3.848E-04 -2.797E-05\n',
               '-   1    4   23     1    23    3.2112E-01  3.5665E-04   '
               '3.2076E-01  0.000E+00  0.000E+00  0.000E+00  1.33692E+02  '
               '4.416E-01  2.341E+00  3.777E-04  3.843E-04 -2.764E-05\n',
               '-   1    4   24     1    24    3.2076E-01  3.5651E-04   '
               '3.2040E-01  0.000E+00  0.000E+00  0.000E+00  1.33391E+02  '
               '4.414E-01  2.341E+00  3.777E-04  3.838E-04 -2.730E-05\n',
               '-   1    4   25     1    25    3.2040E-01  3.5637E-04   '
               '3.2005E-01  0.000E+00  0.000E+00  0.000E+00  1.33091E+02  '
               '4.412E-01  2.340E+00  3.776E-04  3.833E-04 -2.695E-05\n',
               '-   1    4   26     1    26    3.2005E-01  3.5623E-04   '
               '3.1969E-01  0.000E+00  0.000E+00  0.000E+00  1.32791E+02  '
               '4.410E-01  2.340E+00  3.775E-04  3.828E-04 -2.659E-05\n',
               '-   1    4   27     1    27    3.1969E-01  3.5610E-04   '
               '3.1933E-01  0.000E+00  0.000E+00  0.000E+00  1.32491E+02  '
               '4.408E-01  2.340E+00  3.775E-04  3.823E-04 -2.622E-05\n',
               '-   1    4   28     1    28    3.1933E-01  3.5596E-04   '
               '3.1898E-01  0.000E+00  0.000E+00  0.000E+00  1.32191E+02  '
               '4.406E-01  2.340E+00  3.774E-04  3.818E-04 -2.583E-05\n',
               '-   1    4   29     1    29    3.1898E-01  3.5582E-04   '
               '3.1862E-01  0.000E+00  0.000E+00  0.000E+00  1.31890E+02  '
               '4.404E-01  2.339E+00  3.773E-04  3.813E-04 -2.544E-05\n',
               '-   1    4   30     1    30    3.1862E-01  3.5568E-04   '
               '3.1827E-01  0.000E+00  0.000E+00  0.000E+00  1.31590E+02  '
               '4.402E-01  2.339E+00  3.773E-04  3.807E-04 -2.503E-05\n',
               '-   1    4   31     1    31    3.1827E-01  3.5554E-04   '
               '3.1791E-01  0.000E+00  0.000E+00  0.000E+00  1.31290E+02  '
               '4.400E-01  2.339E+00  3.772E-04  3.801E-04 -2.461E-05\n',
               '-   1    4   32     1    32    3.1791E-01  3.5540E-04   '
               '3.1756E-01  0.000E+00  0.000E+00  0.000E+00  1.30990E+02  '
               '4.398E-01  2.339E+00  3.771E-04  3.796E-04 -2.418E-05\n',
               '-   1    4   33     1    33    3.1756E-01  3.5526E-04   '
               '3.1720E-01  0.000E+00  0.000E+00  0.000E+00  1.30690E+02  '
               '4.396E-01  2.338E+00  3.771E-04  3.790E-04 -2.374E-05\n',
               '-   1    4   34     1    34    3.1720E-01  3.5512E-04   '
               '3.1685E-01  0.000E+00  0.000E+00  0.000E+00  1.30389E+02  '
               '4.394E-01  2.338E+00  3.770E-04  3.784E-04 -2.329E-05\n',
               '-   1    4   35     1    35    3.1685E-01  3.5499E-04   '
               '3.1649E-01  0.000E+00  0.000E+00  0.000E+00  1.30089E+02  '
               '4.392E-01  2.338E+00  3.769E-04  3.778E-04 -2.284E-05\n',
               '-   1    4   36     1    36    3.1649E-01  3.5485E-04   '
               '3.1614E-01  0.000E+00  0.000E+00  0.000E+00  1.29789E+02  '
               '4.390E-01  2.338E+00  3.769E-04  3.772E-04 -2.237E-05\n',
               '-   1    4   37     1    37    3.1614E-01  3.5471E-04   '
               '3.1578E-01  0.000E+00  0.000E+00  0.000E+00  1.29489E+02  '
               '4.388E-01  2.337E+00  3.768E-04  3.766E-04 -2.190E-05\n',
               '-   1    4   38     1    38    3.1578E-01  3.5457E-04   '
               '3.1543E-01  0.000E+00  0.000E+00  0.000E+00  1.29189E+02  '
               '4.386E-01  2.337E+00  3.767E-04  3.760E-04 -2.141E-05\n',
               '-   1    4   39     1    39    3.1543E-01  3.5443E-04   '
               '3.1507E-01  0.000E+00  0.000E+00  0.000E+00  1.28888E+02  '
               '4.384E-01  2.337E+00  3.767E-04  3.754E-04 -2.092E-05\n',
               '-   1    4   40     1    40    3.1507E-01  3.5429E-04   '
               '3.1472E-01  0.000E+00  0.000E+00  0.000E+00  1.28588E+02  '
               '4.382E-01  2.337E+00  3.766E-04  3.747E-04 -2.043E-05\n',
               '-   1    4   41     1    41    3.1472E-01  3.5415E-04   '
               '3.1436E-01  0.000E+00  0.000E+00  0.000E+00  1.28288E+02  '
               '4.380E-01  2.336E+00  3.765E-04  3.741E-04 -1.992E-05\n',
               '-   1    4   42     1    42    3.1436E-01  3.5402E-04   '
               '3.1401E-01  0.000E+00  0.000E+00  0.000E+00  1.27988E+02  '
               '4.378E-01  2.336E+00  3.765E-04  3.734E-04 -1.942E-05\n',
               '-   1    4   43     1    43    3.1401E-01  3.5388E-04   '
               '3.1366E-01  0.000E+00  0.000E+00  0.000E+00  1.27688E+02  '
               '4.376E-01  2.336E+00  3.764E-04  3.728E-04 -1.890E-05\n',
               '-   1    4   44     1    44    3.1366E-01  3.5374E-04   '
               '3.1330E-01  0.000E+00  0.000E+00  0.000E+00  1.27387E+02  '
               '4.374E-01  2.336E+00  3.763E-04  3.721E-04 -1.838E-05\n',
               '-   1    4   45     1    45    3.1330E-01  3.5360E-04   '
               '3.1295E-01  0.000E+00  0.000E+00  0.000E+00  1.27087E+02  '
               '4.372E-01  2.336E+00  3.763E-04  3.715E-04 -1.785E-05\n',
               '-   1    4   46     1    46    3.1295E-01  3.5346E-04   '
               '3.1260E-01  0.000E+00  0.000E+00  0.000E+00  1.26787E+02  '
               '4.369E-01  2.335E+00  3.762E-04  3.708E-04 -1.733E-05\n',
               '-   1    4   47     1    47    3.1260E-01  3.5332E-04   '
               '3.1224E-01  0.000E+00  0.000E+00  0.000E+00  1.26487E+02  '
               '4.367E-01  2.335E+00  3.761E-04  3.701E-04 -1.679E-05\n',
               '-   1    4   48     1    48    3.1224E-01  3.5318E-04   '
               '3.1189E-01  0.000E+00  0.000E+00  0.000E+00  1.26187E+02  '
               '4.365E-01  2.335E+00  3.761E-04  3.694E-04 -1.625E-05\n',
               '-   1    4   49     1    49    3.1189E-01  3.5305E-04   '
               '3.1154E-01  0.000E+00  0.000E+00  0.000E+00  1.25886E+02  '
               '4.363E-01  2.335E+00  3.760E-04  3.688E-04 -1.571E-05\n',
               '-   1    4   50     1    50    3.1154E-01  3.5291E-04   '
               '3.1118E-01  0.000E+00  0.000E+00  0.000E+00  1.25586E+02  '
               '4.361E-01  2.334E+00  3.759E-04  3.681E-04 -1.517E-05\n',
               '-   1    4   51     1    51    3.1118E-01  3.5277E-04   '
               '3.1083E-01  0.000E+00  0.000E+00  0.000E+00  1.25286E+02  '
               '4.359E-01  2.334E+00  3.759E-04  3.674E-04 -1.462E-05\n',
               '-   1    4   52     1    52    3.1083E-01  3.5263E-04   '
               '3.1048E-01  0.000E+00  0.000E+00  0.000E+00  1.24986E+02  '
               '4.357E-01  2.334E+00  3.758E-04  3.667E-04 -1.407E-05\n',
               '-   1    4   53     1    53    3.1048E-01  3.5249E-04   '
               '3.1012E-01  0.000E+00  0.000E+00  0.000E+00  1.24686E+02  '
               '4.355E-01  2.334E+00  3.757E-04  3.660E-04 -1.352E-05\n',
               '-   1    4   54     1    54    3.1012E-01  3.5236E-04   '
               '3.0977E-01  0.000E+00  0.000E+00  0.000E+00  1.24385E+02  '
               '4.353E-01  2.333E+00  3.757E-04  3.653E-04 -1.296E-05\n',
               '-   1    4   55     1    55    3.0977E-01  3.5222E-04   '
               '3.0942E-01  0.000E+00  0.000E+00  0.000E+00  1.24085E+02  '
               '4.351E-01  2.333E+00  3.756E-04  3.646E-04 -1.241E-05\n',
               '-   1    4   56     1    56    3.0942E-01  3.5208E-04   '
               '3.0907E-01  0.000E+00  0.000E+00  0.000E+00  1.23785E+02  '
               '4.349E-01  2.333E+00  3.755E-04  3.639E-04 -1.185E-05\n',
               '-   1    4   57     1    57    3.0907E-01  3.5194E-04   '
               '3.0872E-01  0.000E+00  0.000E+00  0.000E+00  1.23485E+02  '
               '4.347E-01  2.333E+00  3.755E-04  3.632E-04 -1.130E-05\n',
               '-   1    4   58     1    58    3.0872E-01  3.5180E-04   '
               '3.0836E-01  0.000E+00  0.000E+00  0.000E+00  1.23185E+02  '
               '4.345E-01  2.332E+00  3.754E-04  3.625E-04 -1.074E-05\n',
               '-   1    4   59     1    59    3.0836E-01  3.5166E-04   '
               '3.0801E-01  0.000E+00  0.000E+00  0.000E+00  1.22884E+02  '
               '4.343E-01  2.332E+00  3.753E-04  3.618E-04 -1.018E-05\n',
               '-   1    4   60     1    60    3.0801E-01  3.5153E-04   '
               '3.0766E-01  0.000E+00  0.000E+00  0.000E+00  1.22584E+02  '
               '4.341E-01  2.332E+00  3.753E-04  3.612E-04 -9.629E-06\n',
               '-   1    4   61     1    61    3.0766E-01  3.5139E-04   '
               '3.0731E-01  0.000E+00  0.000E+00  0.000E+00  1.22284E+02  '
               '4.339E-01  2.332E+00  3.752E-04  3.605E-04 -9.076E-06\n',
               '-   1    4   62     1    62    3.0731E-01  3.5125E-04   '
               '3.0696E-01  0.000E+00  0.000E+00  0.000E+00  1.21984E+02  '
               '4.337E-01  2.331E+00  3.751E-04  3.598E-04 -8.527E-06\n',
               '-   1    4   63     1    63    3.0696E-01  3.5111E-04   '
               '3.0661E-01  0.000E+00  0.000E+00  0.000E+00  1.21683E+02  '
               '4.335E-01  2.331E+00  3.751E-04  3.591E-04 -7.981E-06\n',
               '-   1    4   64     1    64    3.0661E-01  3.5097E-04   '
               '3.0626E-01  0.000E+00  0.000E+00  0.000E+00  1.21383E+02  '
               '4.333E-01  2.331E+00  3.750E-04  3.584E-04 -7.441E-06\n',
               '-   1    4   65     1    65    3.0626E-01  3.5084E-04   '
               '3.0591E-01  0.000E+00  0.000E+00  0.000E+00  1.21083E+02  '
               '4.331E-01  2.331E+00  3.749E-04  3.577E-04 -6.908E-06\n',
               '-   1    4   66     1    66    3.0591E-01  3.5070E-04   '
               '3.0556E-01  0.000E+00  0.000E+00  0.000E+00  1.20783E+02  '
               '4.329E-01  2.330E+00  3.749E-04  3.571E-04 -6.384E-06\n',
               '-   1    4   67     1    67    3.0556E-01  3.5056E-04   '
               '3.0520E-01  0.000E+00  0.000E+00  0.000E+00  1.20483E+02  '
               '4.327E-01  2.330E+00  3.748E-04  3.564E-04 -5.869E-06\n',
               '-   1    4   68     1    68    3.0520E-01  3.5042E-04   '
               '3.0485E-01  0.000E+00  0.000E+00  0.000E+00  1.20182E+02  '
               '4.325E-01  2.330E+00  3.747E-04  3.558E-04 -5.366E-06\n',
               '-   1    4   69     1    69    3.0485E-01  3.5028E-04   '
               '3.0450E-01  0.000E+00  0.000E+00  0.000E+00  1.19882E+02  '
               '4.323E-01  2.330E+00  3.747E-04  3.552E-04 -4.875E-06\n',
               '-   1    4   70     1    70    3.0450E-01  3.5015E-04   '
               '3.0415E-01  0.000E+00  0.000E+00  0.000E+00  1.19582E+02  '
               '4.321E-01  2.329E+00  3.746E-04  3.545E-04 -4.402E-06\n',
               '-   1    4   71     1    71    3.0415E-01  3.5001E-04   '
               '3.0380E-01  0.000E+00  0.000E+00  0.000E+00  1.19282E+02  '
               '4.319E-01  2.329E+00  3.745E-04  3.540E-04 -3.950E-06\n',
               '-   1    4   72     1    72    3.0380E-01  3.4987E-04   '
               '3.0345E-01  0.000E+00  0.000E+00  0.000E+00  1.18982E+02  '
               '4.317E-01  2.329E+00  3.745E-04  3.534E-04 -3.519E-06\n',
               '-   1    4   73     1    73    3.0345E-01  3.4973E-04   '
               '3.0310E-01  0.000E+00  0.000E+00  0.000E+00  1.18681E+02  '
               '4.315E-01  2.329E+00  3.744E-04  3.528E-04 -3.116E-06\n',
               '-   1    4   74     1    74    3.0310E-01  3.4959E-04   '
               '3.0275E-01  0.000E+00  0.000E+00  0.000E+00  1.18381E+02  '
               '4.312E-01  2.328E+00  3.743E-04  3.523E-04 -2.745E-06\n',
               '-   1    4   75     1    75    3.0275E-01  3.4946E-04   '
               '3.0240E-01  0.000E+00  0.000E+00  0.000E+00  1.18081E+02  '
               '4.310E-01  2.328E+00  3.743E-04  3.519E-04 -2.410E-06\n',
               '-   1    4   76     1    76    3.0240E-01  3.4932E-04   '
               '3.0206E-01  0.000E+00  0.000E+00  0.000E+00  1.17781E+02  '
               '4.308E-01  2.328E+00  3.742E-04  3.514E-04 -2.116E-06\n',
               '-   1    4   77     1    77    3.0206E-01  3.4918E-04   '
               '3.0171E-01  0.000E+00  0.000E+00  0.000E+00  1.17481E+02  '
               '4.306E-01  2.328E+00  3.741E-04  3.510E-04 -1.870E-06\n',
               '-   1    4   78     1    78    3.0171E-01  3.4904E-04   '
               '3.0136E-01  0.000E+00  0.000E+00  0.000E+00  1.17180E+02  '
               '4.304E-01  2.327E+00  3.741E-04  3.507E-04 -1.676E-06\n',
               '-   1    4   79     1    79    3.0136E-01  3.4890E-04   '
               '3.0101E-01  0.000E+00  0.000E+00  0.000E+00  1.16880E+02  '
               '4.302E-01  2.327E+00  3.740E-04  3.504E-04 -1.543E-06\n',
               '-   1    4   80     1    80    3.0101E-01  3.4877E-04   '
               '3.0066E-01  0.000E+00  0.000E+00  0.000E+00  1.16580E+02  '
               '4.300E-01  2.327E+00  3.739E-04  3.502E-04 -1.477E-06\n',
               '-   1    4   81     1    81    3.0066E-01  3.4863E-04   '
               '3.0031E-01  0.000E+00  0.000E+00  0.000E+00  1.16280E+02  '
               '4.298E-01  2.327E+00  3.739E-04  3.501E-04 -1.484E-06\n',
               '-   1    4   82     1    82    3.0031E-01  3.4849E-04   '
               '2.9996E-01  0.000E+00  0.000E+00  0.000E+00  1.15980E+02  '
               '4.296E-01  2.327E+00  3.738E-04  3.501E-04 -1.575E-06\n',
               '-   1    4   83     1    83    2.9996E-01  3.4835E-04   '
               '2.9961E-01  0.000E+00  0.000E+00  0.000E+00  1.15679E+02  '
               '4.294E-01  2.326E+00  3.737E-04  3.501E-04 -1.758E-06\n',
               '-   1    4   84     1    84    2.9961E-01  3.4822E-04   '
               '2.9927E-01  0.000E+00  0.000E+00  0.000E+00  1.15379E+02  '
               '4.292E-01  2.326E+00  3.737E-04  3.502E-04 -2.031E-06\n',
               '-   1    4   85     1    85    2.9927E-01  3.4808E-04   '
               '2.9892E-01  0.000E+00  0.000E+00  0.000E+00  1.15079E+02  '
               '4.290E-01  2.326E+00  3.736E-04  3.616E-04 -1.354E-05\n',
               '-   1    4   86     1    86    2.9892E-01  3.4794E-04   '
               '2.9857E-01  0.000E+00  0.000E+00  0.000E+00  1.14779E+02  '
               '4.288E-01  2.326E+00  3.735E-04  3.620E-04 -1.406E-05\n',
               '-   1    4   87     1    87    2.9857E-01  3.4780E-04   '
               '2.9822E-01  0.000E+00  0.000E+00  0.000E+00  1.14479E+02  '
               '4.286E-01  2.325E+00  3.735E-04  3.835E-04 -3.574E-05\n',
               '-   1    4   88     1    88    2.9822E-01  3.4767E-04   '
               '2.9787E-01  0.000E+00  0.000E+00  0.000E+00  1.14178E+02  '
               '4.284E-01  2.325E+00  3.734E-04  3.847E-04 -3.702E-05\n',
               '-   1    4   89     1    89    2.9787E-01  3.4753E-04   '
               '2.9753E-01  0.000E+00  0.000E+00  0.000E+00  1.13878E+02  '
               '4.282E-01  2.325E+00  3.733E-04  3.856E-04 -3.808E-05\n',
               '-   1    4   90     1    90    2.9753E-01  3.4739E-04   '
               '2.9718E-01  0.000E+00  0.000E+00  0.000E+00  1.13578E+02  '
               '4.280E-01  2.325E+00  3.733E-04  3.867E-04 -3.932E-05\n',
               '-   1    4   91     1    91    2.9718E-01  3.4725E-04   '
               '2.9683E-01  0.000E+00  0.000E+00  0.000E+00  1.13278E+02  '
               '4.278E-01  2.324E+00  3.732E-04  3.880E-04 -4.075E-05\n',
               '-   1    4   92     1    92    2.9683E-01  3.4712E-04   '
               '2.9649E-01  0.000E+00  0.000E+00  0.000E+00  1.12978E+02  '
               '4.276E-01  2.324E+00  3.731E-04  3.895E-04 -4.238E-05\n',
               '-   1    4   93     1    93    2.9649E-01  3.4698E-04   '
               '2.9614E-01  0.000E+00  0.000E+00  0.000E+00  1.12677E+02  '
               '4.274E-01  2.324E+00  3.731E-04  3.912E-04 -4.420E-05\n',
               '-   1    4   94     1    94    2.9614E-01  3.4684E-04   '
               '2.9579E-01  0.000E+00  0.000E+00  0.000E+00  1.12377E+02  '
               '4.272E-01  2.324E+00  3.730E-04  4.013E-04 -5.449E-05\n',
               '-   1    4   95     1    95    2.9579E-01  3.4670E-04   '
               '2.9544E-01  0.000E+00  0.000E+00  0.000E+00  1.12077E+02  '
               '4.270E-01  2.323E+00  3.729E-04  4.091E-04 -6.238E-05\n',
               '-   1    4   96     1    96    2.9544E-01  3.4657E-04   '
               '2.9510E-01  0.000E+00  0.000E+00  0.000E+00  1.11777E+02  '
               '4.268E-01  2.323E+00  3.729E-04  4.144E-04 -6.780E-05\n',
               '-   1    4   97     1    97    2.9510E-01  3.4643E-04   '
               '2.9475E-01  0.000E+00  0.000E+00  0.000E+00  1.11477E+02  '
               '4.266E-01  2.323E+00  3.728E-04  4.241E-04 -7.763E-05\n',
               '-   1    4   98     1    98    2.9475E-01  3.4629E-04   '
               '2.9441E-01  0.000E+00  0.000E+00  0.000E+00  1.11176E+02  '
               '4.264E-01  2.323E+00  3.727E-04  4.408E-04 -9.451E-05\n',
               '-   1    4   99     1    99    2.9441E-01  3.4615E-04   '
               '2.9406E-01  0.000E+00  0.000E+00  0.000E+00  1.10876E+02  '
               '4.262E-01  2.322E+00  3.727E-04  4.778E-04 -1.316E-04\n',
               '-   1    4  100     1   100    2.9406E-01  3.4602E-04   '
               '2.9371E-01  0.000E+00  0.000E+00  0.000E+00  1.10576E+02  '
               '4.260E-01  2.322E+00  3.726E-04  4.987E-04 -1.527E-04\n',
               '-\n',
               '-\n',
               '-\n',
               '-1\n',
               '-  VOLUMETRIC BUDGET FOR UNSATURATED ZONE BENEATH STREAMS AT '
               'END OF TIME STEP    30 STRESS PERIOD  25\n',
               '-  '
               '------------------------------------------------------------------------------------------------\n',
               '-\n',
               '-    CUMULATIVE VOLUMES             L**3    RATES FOR THIS '
               'TIME STEP         L**3/T\n',
               '-    ------------------                     '
               '------------------------\n',
               '-\n',
               '-\n',
               '-          STREAM LOSS =     27312658.0000            STREAM '
               'LOSS =        3.5285E-02\n',
               '-    CHANGE IN STORAGE =       302406.5000      CHANGE IN '
               'STORAGE =       -2.5296E-03\n',
               '-       RECHARGE TO GW =     27013768.0000         RECHARGE TO '
               'GW =        3.7814E-02\n',
               '-\n',
               '-             TOTAL IN =     27312658.0000               TOTAL '
               'IN =        3.7814E-02\n',
               '-\n',
               '-            TOTAL OUT =     27316174.0000              TOTAL '
               'OUT =        3.7814E-02\n',
               '-\n',
               '-             IN - OUT =        -3516.0000               IN - '
               'OUT =        1.8626E-08\n',
               '-\n',
               '-  PERCENT DISCREPANCY =           -0.00      PERCENT '
               'DISCREPANCY =             0.00\n',
               '-\n',
               '-\n',
               '-\n',
               '-1\n',
               '-              HEAD IN LAYER   1 AT END OF TIME STEP  30 IN '
               'STRESS PERIOD   25\n',
               '-  '
               '---------------------------------------------------------------------------\n',
               '-\n',
               '-          1      2      3      4      5      6      7      '
               '8      9     10\n',
               '-         11     12     13     14     15     16     17     '
               '18     19     20\n',
               '-         21     22     23     24     25     26     27     '
               '28     29     30\n',
               '-         31     32     33     34     35     36     37     '
               '38     39     40\n',
               '-         41     42     43     44     45     46     47     '
               '48     49     50\n',
               '-         51     52     53     54     55     56     57     '
               '58     59     60\n',
               '-         61     62     63     64     65     66     67     '
               '68     69     70\n',
               '-         71     72     73     74     75     76     77     '
               '78     79     80\n',
               '-         81     82     83     84     85     86     87     '
               '88     89     90\n',
               '-         91     92     93     94     95     96     97     '
               '98     99    100\n',
               '- '
               '.........................................................................\n',
               '-   1   115.0  115.0  115.0  114.9  114.9  114.9  114.9  '
               '114.9  114.9  114.8\n',
               '-       114.8  114.8  114.8  114.7  114.7  114.6  114.6  '
               '114.6  114.5  114.4\n',
               '-       114.4  114.3  114.3  114.2  114.1  114.0  114.0  '
               '113.9  113.8  113.7\n',
               '-       113.6  113.5  113.4  113.2  113.1  113.0  112.8  '
               '112.7  112.5  112.4\n',
               '-       112.2  112.0  111.8  111.6  111.4  111.2  111.0  '
               '110.8  110.5  110.3\n',
               '-       110.0  109.8  109.5  109.2  108.9  108.6  108.2  '
               '107.9  107.5  107.1\n',
               '-       106.8  106.4  105.9  105.5  105.1  104.6  104.1  '
               '103.6  103.1  102.6\n',
               '-       102.0  101.4  100.8  100.2   99.6   98.9   98.2   '
               '97.5   96.8   96.0\n',
               '-        95.2   94.4   93.6   92.7   91.9   90.9   90.0   '
               '89.0   88.0   87.0\n',
               '-        85.9   84.8   83.7   82.6   81.4   80.2   78.9   '
               '77.6   76.3   75.0\n',
               '-   2   115.0  115.0  115.0  114.9  114.9  114.9  114.9  '
               '114.9  114.9  114.8\n',
               '-       114.8  114.8  114.8  114.7  114.7  114.6  114.6  '
               '114.6  114.5  114.4\n',
               '-       114.4  114.3  114.3  114.2  114.1  114.0  114.0  '
               '113.9  113.8  113.7\n',
               '-       113.6  113.5  113.4  113.2  113.1  113.0  112.8  '
               '112.7  112.5  112.4\n',
               '-       112.2  112.0  111.8  111.6  111.4  111.2  111.0  '
               '110.8  110.5  110.3\n',
               '-       110.0  109.8  109.5  109.2  108.9  108.6  108.2  '
               '107.9  107.5  107.1\n',
               '-       106.8  106.4  105.9  105.5  105.1  104.6  104.1  '
               '103.6  103.1  102.6\n',
               '-       102.0  101.4  100.8  100.2   99.6   98.9   98.2   '
               '97.5   96.8   96.0\n',
               '-        95.2   94.4   93.6   92.7   91.9   90.9   90.0   '
               '89.0   88.0   87.0\n',
               '-        85.9   84.8   83.7   82.6   81.4   80.2   78.9   '
               '77.6   76.3   75.0\n',
               '-   3   115.0  115.0  115.0  114.9  114.9  114.9  114.9  '
               '114.9  114.9  114.8\n',
               '-       114.8  114.8  114.8  114.7  114.7  114.6  114.6  '
               '114.6  114.5  114.4\n',
               '-       114.4  114.3  114.3  114.2  114.1  114.0  114.0  '
               '113.9  113.8  113.7\n',
               '-       113.6  113.5  113.4  113.2  113.1  113.0  112.8  '
               '112.7  112.5  112.4\n',
               '-       112.2  112.0  111.8  111.6  111.4  111.2  111.0  '
               '110.8  110.5  110.3\n',
               '-       110.0  109.8  109.5  109.2  108.9  108.6  108.2  '
               '107.9  107.5  107.1\n',
               '-       106.8  106.4  105.9  105.5  105.1  104.6  104.1  '
               '103.6  103.1  102.6\n',
               '-       102.0  101.4  100.8  100.2   99.6   98.9   98.2   '
               '97.5   96.8   96.0\n',
               '-        95.2   94.4   93.6   92.7   91.9   90.9   90.0   '
               '89.0   88.0   87.0\n',
               '-        85.9   84.8   83.7   82.6   81.4   80.2   78.9   '
               '77.6   76.3   75.0\n',
               '-   4   115.0  115.0  115.0  114.9  114.9  114.9  114.9  '
               '114.9  114.9  114.8\n',
               '-       114.8  114.8  114.8  114.7  114.7  114.6  114.6  '
               '114.6  114.5  114.5\n',
               '-       114.4  114.3  114.3  114.2  114.1  114.0  114.0  '
               '113.9  113.8  113.7\n',
               '-       113.6  113.5  113.4  113.2  113.1  113.0  112.8  '
               '112.7  112.5  112.4\n',
               '-       112.2  112.0  111.8  111.6  111.4  111.2  111.0  '
               '110.8  110.5  110.3\n',
               '-       110.0  109.8  109.5  109.2  108.9  108.6  108.2  '
               '107.9  107.5  107.1\n',
               '-       106.8  106.4  105.9  105.5  105.1  104.6  104.1  '
               '103.6  103.1  102.6\n',
               '-       102.0  101.4  100.8  100.2   99.6   98.9   98.2   '
               '97.5   96.8   96.0\n',
               '-        95.2   94.4   93.6   92.7   91.9   90.9   90.0   '
               '89.0   88.0   87.0\n',
               '-        85.9   84.8   83.7   82.6   81.4   80.2   78.9   '
               '77.6   76.3   75.0\n',
               '-   5   115.0  115.0  115.0  114.9  114.9  114.9  114.9  '
               '114.9  114.9  114.8\n',
               '-       114.8  114.8  114.8  114.7  114.7  114.6  114.6  '
               '114.6  114.5  114.4\n',
               '-       114.4  114.3  114.3  114.2  114.1  114.0  114.0  '
               '113.9  113.8  113.7\n',
               '-       113.6  113.5  113.4  113.2  113.1  113.0  112.8  '
               '112.7  112.5  112.4\n',
               '-       112.2  112.0  111.8  111.6  111.4  111.2  111.0  '
               '110.8  110.5  110.3\n',
               '-       110.0  109.8  109.5  109.2  108.9  108.6  108.2  '
               '107.9  107.5  107.1\n',
               '-       106.8  106.4  105.9  105.5  105.1  104.6  104.1  '
               '103.6  103.1  102.6\n',
               '-       102.0  101.4  100.8  100.2   99.6   98.9   98.2   '
               '97.5   96.8   96.0\n',
               '-        95.2   94.4   93.6   92.7   91.9   90.9   90.0   '
               '89.0   88.0   87.0\n',
               '-        85.9   84.8   83.7   82.6   81.4   80.2   78.9   '
               '77.6   76.3   75.0\n',
               '-   6   115.0  115.0  115.0  114.9  114.9  114.9  114.9  '
               '114.9  114.9  114.8\n',
               '-       114.8  114.8  114.8  114.7  114.7  114.6  114.6  '
               '114.6  114.5  114.4\n',
               '-       114.4  114.3  114.3  114.2  114.1  114.0  114.0  '
               '113.9  113.8  113.7\n',
               '-       113.6  113.5  113.4  113.2  113.1  113.0  112.8  '
               '112.7  112.5  112.4\n',
               '-       112.2  112.0  111.8  111.6  111.4  111.2  111.0  '
               '110.8  110.5  110.3\n',
               '-       110.0  109.8  109.5  109.2  108.9  108.6  108.2  '
               '107.9  107.5  107.1\n',
               '-       106.8  106.4  105.9  105.5  105.1  104.6  104.1  '
               '103.6  103.1  102.6\n',
               '-       102.0  101.4  100.8  100.2   99.6   98.9   98.2   '
               '97.5   96.8   96.0\n',
               '-        95.2   94.4   93.6   92.7   91.9   90.9   90.0   '
               '89.0   88.0   87.0\n',
               '-        85.9   84.8   83.7   82.6   81.4   80.2   78.9   '
               '77.6   76.3   75.0\n',
               '-   7   115.0  115.0  115.0  114.9  114.9  114.9  114.9  '
               '114.9  114.9  114.8\n',
               '-       114.8  114.8  114.8  114.7  114.7  114.6  114.6  '
               '114.6  114.5  114.4\n',
               '-       114.4  114.3  114.3  114.2  114.1  114.0  114.0  '
               '113.9  113.8  113.7\n',
               '-       113.6  113.5  113.4  113.2  113.1  113.0  112.8  '
               '112.7  112.5  112.4\n',
               '-       112.2  112.0  111.8  111.6  111.4  111.2  111.0  '
               '110.8  110.5  110.3\n',
               '-       110.0  109.8  109.5  109.2  108.9  108.6  108.2  '
               '107.9  107.5  107.1\n',
               '-       106.8  106.4  105.9  105.5  105.1  104.6  104.1  '
               '103.6  103.1  102.6\n',
               '-       102.0  101.4  100.8  100.2   99.6   98.9   98.2   '
               '97.5   96.8   96.0\n',
               '-        95.2   94.4   93.6   92.7   91.9   90.9   90.0   '
               '89.0   88.0   87.0\n',
               '-        85.9   84.8   83.7   82.6   81.4   80.2   78.9   '
               '77.6   76.3   75.0\n',
               '-1\n',
               '-  VOLUMETRIC BUDGET FOR ENTIRE MODEL AT END OF TIME STEP   '
               '30, STRESS PERIOD  25\n',
               '-  '
               '------------------------------------------------------------------------------\n',
               '-\n',
               '-     CUMULATIVE VOLUMES      L**3       RATES FOR THIS TIME '
               'STEP      L**3/T\n',
               '-     ------------------                 '
               '------------------------\n',
               '-\n',
               '-           IN:                                      IN:\n',
               '-           ---                                      ---\n',
               '-             STORAGE =    11814657.0000               STORAGE '
               '=           0.2044\n',
               '-       CONSTANT HEAD =           0.0000         CONSTANT HEAD '
               '=           0.0000\n',
               '-     HEAD DEP BOUNDS =           0.0000       HEAD DEP BOUNDS '
               '=           0.0000\n',
               '-      STREAM LEAKAGE =    27013762.0000        STREAM LEAKAGE '
               '=       3.7814E-02\n',
               '-\n',
               '-            TOTAL IN =    38828420.0000              TOTAL IN '
               '=           0.2422\n',
               '-\n',
               '-          OUT:                                     OUT:\n',
               '-          ----                                     ----\n',
               '-             STORAGE =    15666716.0000               STORAGE '
               '=           0.0000\n',
               '-       CONSTANT HEAD =           0.0000         CONSTANT HEAD '
               '=           0.0000\n',
               '-     HEAD DEP BOUNDS =    23161560.0000       HEAD DEP BOUNDS '
               '=           0.2421\n',
               '-      STREAM LEAKAGE =           0.0000        STREAM LEAKAGE '
               '=           0.0000\n',
               '-\n',
               '-           TOTAL OUT =    38828276.0000             TOTAL OUT '
               '=           0.2421\n',
               '-\n',
               '-            IN - OUT =         144.0000              IN - OUT '
               '=       9.2641E-05\n',
               '-\n',
               '- PERCENT DISCREPANCY =           0.00     PERCENT DISCREPANCY '
               '=           0.04\n',
               '-\n',
               '-\n',
               '-\n',
               '-\n',
               '-\n',
               '-\n',
               '-         TIME SUMMARY AT END OF TIME STEP   30 IN STRESS '
               'PERIOD   25\n',
               '-                    SECONDS     MINUTES      HOURS       '
               'DAYS        YEARS\n',
               '-                    '
               '-----------------------------------------------------------\n',
               '-   TIME STEP LENGTH 2.49961E+05  4166.0      69.434      '
               '2.8931     7.92080E-03\n',
               '- STRESS PERIOD TIME 2.59200E+06  43200.      720.00      '
               '30.000     8.21355E-02\n',
               '-         TOTAL TIME 6.47999E+07 1.08000E+06  18000.      '
               '750.00      2.0534    \n',
               '-1\n',
               '-1\n',
               '-                            STRESS PERIOD NO.   26, LENGTH '
               '=   2592000.    \n',
               '-                            '
               '-----------------------------------------------\n',
               '-\n',
               '-                              NUMBER OF TIME STEPS =    30\n',
               '-\n',
               '-                               MULTIPLIER FOR DELT =     '
               '1.100\n',
               '-\n',
               '-                            INITIAL TIME STEP SIZE =   '
               '15757.40    \n',
               '-\n',
               '- REUSING NON-PARAMETER GHB CELLS FROM LAST STRESS PERIOD\n',
               '-\n',
               '-      7 GHB CELLS\n',
               '- \n',
               '- SOLVING FOR HEAD \n',
               '-\n',
               '- NO OUTPUT CONTROL FOR STRESS PERIOD   26   TIME STEP    1\n',
               '- \n',
               '- SOLVING FOR HEAD \n',
               '-\n',
               '- NO OUTPUT CONTROL FOR STRESS PERIOD   26   TIME STEP    2\n',
               '- \n',
               '- SOLVING FOR HEAD \n',
               '-\n',
               '- NO OUTPUT CONTROL FOR STRESS PERIOD   26   TIME STEP    3\n',
               '- \n',
               '- SOLVING FOR HEAD \n',
               '-\n',
               '- NO OUTPUT CONTROL FOR STRESS PERIOD   26   TIME STEP    4\n',
               '- \n',
               '- SOLVING FOR HEAD \n',
               '-\n',
               '- NO OUTPUT CONTROL FOR STRESS PERIOD   26   TIME STEP    5\n',
               '- \n',
               '- SOLVING FOR HEAD \n',
               '-\n',
               '- NO OUTPUT CONTROL FOR STRESS PERIOD   26   TIME STEP    6\n',
               '- \n',
               '- SOLVING FOR HEAD \n',
               '-\n',
               '- NO OUTPUT CONTROL FOR STRESS PERIOD   26   TIME STEP    7\n',
               '- \n',
               '- SOLVING FOR HEAD \n',
               '-\n',
               '- NO OUTPUT CONTROL FOR STRESS PERIOD   26   TIME STEP    8\n',
               '- \n',
               '- SOLVING FOR HEAD \n',
               '-\n',
               '- NO OUTPUT CONTROL FOR STRESS PERIOD   26   TIME STEP    9\n',
               '- \n',
               '- SOLVING FOR HEAD \n',
               '-\n',
               '- NO OUTPUT CONTROL FOR STRESS PERIOD   26   TIME STEP   10\n',
               '- \n',
               '- SOLVING FOR HEAD \n',
               '-\n',
               '- NO OUTPUT CONTROL FOR STRESS PERIOD   26   TIME STEP   11\n',
               '- \n',
               '- SOLVING FOR HEAD \n',
               '-\n',
               '- NO OUTPUT CONTROL FOR STRESS PERIOD   26   TIME STEP   12\n',
               '- \n',
               '- SOLVING FOR HEAD \n',
               '-\n',
               '- NO OUTPUT CONTROL FOR STRESS PERIOD   26   TIME STEP   13\n',
               '- \n',
               '- SOLVING FOR HEAD \n',
               '-\n',
               '- NO OUTPUT CONTROL FOR STRESS PERIOD   26   TIME STEP   14\n',
               '- \n',
               '- SOLVING FOR HEAD \n',
               '-\n',
               '- NO OUTPUT CONTROL FOR STRESS PERIOD   26   TIME STEP   15\n',
               '- \n',
               '- SOLVING FOR HEAD \n',
               '-\n',
               '- NO OUTPUT CONTROL FOR STRESS PERIOD   26   TIME STEP   16\n',
               '- \n',
               '- SOLVING FOR HEAD \n',
               '-\n',
               '- NO OUTPUT CONTROL FOR STRESS PERIOD   26   TIME STEP   17\n',
               '- \n',
               '- SOLVING FOR HEAD \n',
               '-\n',
               '- NO OUTPUT CONTROL FOR STRESS PERIOD   26   TIME STEP   18\n',
               '- \n',
               '- SOLVING FOR HEAD \n',
               '-\n',
               '- NO OUTPUT CONTROL FOR STRESS PERIOD   26   TIME STEP   19\n',
               '- \n',
               '- SOLVING FOR HEAD \n',
               '-\n',
               '- NO OUTPUT CONTROL FOR STRESS PERIOD   26   TIME STEP   20\n',
               '- \n',
               '- SOLVING FOR HEAD \n',
               '-\n',
               '- NO OUTPUT CONTROL FOR STRESS PERIOD   26   TIME STEP   21\n',
               '- \n',
               '- SOLVING FOR HEAD \n',
               '-\n',
               '- NO OUTPUT CONTROL FOR STRESS PERIOD   26   TIME STEP   22\n',
               '- \n',
               '- SOLVING FOR HEAD \n',
               '-\n',
               '- NO OUTPUT CONTROL FOR STRESS PERIOD   26   TIME STEP   23\n',
               '- \n',
               '- SOLVING FOR HEAD \n',
               '-\n',
               '- NO OUTPUT CONTROL FOR STRESS PERIOD   26   TIME STEP   24\n',
               '- \n',
               '- SOLVING FOR HEAD \n',
               '-\n',
               '- NO OUTPUT CONTROL FOR STRESS PERIOD   26   TIME STEP   25\n',
               '- \n',
               '- SOLVING FOR HEAD \n',
               '-\n',
               '- NO OUTPUT CONTROL FOR STRESS PERIOD   26   TIME STEP   26\n',
               '- \n',
               '- SOLVING FOR HEAD \n',
               '-\n',
               '- NO OUTPUT CONTROL FOR STRESS PERIOD   26   TIME STEP   27\n',
               '- \n',
               '- SOLVING FOR HEAD \n',
               '-\n',
               '- NO OUTPUT CONTROL FOR STRESS PERIOD   26   TIME STEP   28\n',
               '- \n',
               '- SOLVING FOR HEAD \n',
               '-\n',
               '- NO OUTPUT CONTROL FOR STRESS PERIOD   26   TIME STEP   29\n',
               '- \n',
               '- SOLVING FOR HEAD \n',
               '-\n',
               '- NO OUTPUT CONTROL FOR STRESS PERIOD   26   TIME STEP   30\n',
               '-\n',
               '-\n',
               '-\n',
               '- STREAM LISTING     PERIOD     26   STEP       30\n',
               '-\n',
               '- LAYER ROW COL. STREAM  RCH.   FLOW INTO    STREAM     FLOW '
               'OUT OF   OVRLND.    DIRECT     STREAM      STREAM      '
               'STREAM     STREAM  STREAMBED   FLOW TO   CHNG. UNSAT. \n',
               '-                SEG.NO.  NO.   STRM. RCH.    LOSS       STRM. '
               'RCH.   RUNOFF     PRECIP       ET         HEAD        '
               'DEPTH      WIDTH  CONDCTNC.   WAT. TAB.\n',
               '-\n',
               '-   1    4    1     1     1    5.1200E-01  4.2624E-04   '
               '5.1157E-01  0.000E+00  0.000E+00  0.000E+00  1.40390E+02  '
               '5.403E-01  2.459E+00  4.099E-04  4.580E-04 -3.173E-05\n',
               '-   1    4    2     1     2    5.1157E-01  4.2609E-04   '
               '5.1114E-01  0.000E+00  0.000E+00  0.000E+00  1.40090E+02  '
               '5.401E-01  2.459E+00  4.099E-04  4.578E-04 -3.168E-05\n',
               '-   1    4    3     1     3    5.1114E-01  4.2594E-04   '
               '5.1072E-01  0.000E+00  0.000E+00  0.000E+00  1.39790E+02  '
               '5.399E-01  2.458E+00  4.098E-04  4.575E-04 -3.161E-05\n',
               '-   1    4    4     1     4    5.1072E-01  4.2578E-04   '
               '5.1029E-01  0.000E+00  0.000E+00  0.000E+00  1.39490E+02  '
               '5.397E-01  2.458E+00  4.097E-04  4.573E-04 -3.153E-05\n',
               '-   1    4    5     1     5    5.1029E-01  4.2563E-04   '
               '5.0987E-01  0.000E+00  0.000E+00  0.000E+00  1.39190E+02  '
               '5.395E-01  2.458E+00  4.097E-04  4.571E-04 -3.144E-05\n',
               '-   1    4    6     1     6    5.0987E-01  4.2548E-04   '
               '5.0944E-01  0.000E+00  0.000E+00  0.000E+00  1.38889E+02  '
               '5.393E-01  2.458E+00  4.096E-04  4.568E-04 -3.134E-05\n',
               '-   1    4    7     1     7    5.0944E-01  4.2533E-04   '
               '5.0902E-01  0.000E+00  0.000E+00  0.000E+00  1.38589E+02  '
               '5.391E-01  2.458E+00  4.095E-04  4.566E-04 -3.123E-05\n',
               '-   1    4    8     1     8    5.0902E-01  4.2518E-04   '
               '5.0859E-01  0.000E+00  0.000E+00  0.000E+00  1.38289E+02  '
               '5.389E-01  2.457E+00  4.095E-04  4.563E-04 -3.110E-05\n',
               '-   1    4    9     1     9    5.0859E-01  4.2503E-04   '
               '5.0817E-01  0.000E+00  0.000E+00  0.000E+00  1.37989E+02  '
               '5.387E-01  2.457E+00  4.094E-04  4.560E-04 -3.096E-05\n',
               '-   1    4   10     1    10    5.0817E-01  4.2487E-04   '
               '5.0774E-01  0.000E+00  0.000E+00  0.000E+00  1.37689E+02  '
               '5.385E-01  2.457E+00  4.093E-04  4.557E-04 -3.081E-05\n',
               '-   1    4   11     1    11    5.0774E-01  4.2472E-04   '
               '5.0732E-01  0.000E+00  0.000E+00  0.000E+00  1.37388E+02  '
               '5.383E-01  2.457E+00  4.093E-04  4.554E-04 -3.065E-05\n',
               '-   1    4   12     1    12    5.0732E-01  4.2457E-04   '
               '5.0689E-01  0.000E+00  0.000E+00  0.000E+00  1.37088E+02  '
               '5.381E-01  2.456E+00  4.092E-04  4.550E-04 -3.047E-05\n',
               '-   1    4   13     1    13    5.0689E-01  4.2442E-04   '
               '5.0647E-01  0.000E+00  0.000E+00  0.000E+00  1.36788E+02  '
               '5.379E-01  2.456E+00  4.091E-04  4.547E-04 -3.028E-05\n',
               '-   1    4   14     1    14    5.0647E-01  4.2427E-04   '
               '5.0604E-01  0.000E+00  0.000E+00  0.000E+00  1.36488E+02  '
               '5.377E-01  2.456E+00  4.091E-04  4.543E-04 -3.008E-05\n',
               '-   1    4   15     1    15    5.0604E-01  4.2412E-04   '
               '5.0562E-01  0.000E+00  0.000E+00  0.000E+00  1.36188E+02  '
               '5.375E-01  2.456E+00  4.090E-04  4.540E-04 -2.986E-05\n',
               '-   1    4   16     1    16    5.0562E-01  4.2397E-04   '
               '5.0520E-01  0.000E+00  0.000E+00  0.000E+00  1.35887E+02  '
               '5.373E-01  2.455E+00  4.089E-04  4.536E-04 -2.963E-05\n',
               '-   1    4   17     1    17    5.0520E-01  4.2382E-04   '
               '5.0477E-01  0.000E+00  0.000E+00  0.000E+00  1.35587E+02  '
               '5.371E-01  2.455E+00  4.089E-04  4.532E-04 -2.938E-05\n',
               '-   1    4   18     1    18    5.0477E-01  4.2366E-04   '
               '5.0435E-01  0.000E+00  0.000E+00  0.000E+00  1.35287E+02  '
               '5.369E-01  2.455E+00  4.088E-04  4.528E-04 -2.912E-05\n',
               '-   1    4   19     1    19    5.0435E-01  4.2351E-04   '
               '5.0392E-01  0.000E+00  0.000E+00  0.000E+00  1.34987E+02  '
               '5.367E-01  2.455E+00  4.087E-04  4.524E-04 -2.885E-05\n',
               '-   1    4   20     1    20    5.0392E-01  4.2336E-04   '
               '5.0350E-01  0.000E+00  0.000E+00  0.000E+00  1.34686E+02  '
               '5.365E-01  2.454E+00  4.087E-04  4.519E-04 -2.856E-05\n',
               '-   1    4   21     1    21    5.0350E-01  4.2321E-04   '
               '5.0308E-01  0.000E+00  0.000E+00  0.000E+00  1.34386E+02  '
               '5.363E-01  2.454E+00  4.086E-04  4.515E-04 -2.826E-05\n',
               '-   1    4   22     1    22    5.0308E-01  4.2306E-04   '
               '5.0265E-01  0.000E+00  0.000E+00  0.000E+00  1.34086E+02  '
               '5.361E-01  2.454E+00  4.085E-04  4.510E-04 -2.795E-05\n',
               '-   1    4   23     1    23    5.0265E-01  4.2291E-04   '
               '5.0223E-01  0.000E+00  0.000E+00  0.000E+00  1.33786E+02  '
               '5.359E-01  2.454E+00  4.085E-04  4.505E-04 -2.763E-05\n',
               '-   1    4   24     1    24    5.0223E-01  4.2276E-04   '
               '5.0181E-01  0.000E+00  0.000E+00  0.000E+00  1.33486E+02  '
               '5.357E-01  2.453E+00  4.084E-04  4.500E-04 -2.729E-05\n',
               '-   1    4   25     1    25    5.0181E-01  4.2261E-04   '
               '5.0139E-01  0.000E+00  0.000E+00  0.000E+00  1.33185E+02  '
               '5.355E-01  2.453E+00  4.084E-04  4.495E-04 -2.694E-05\n',
               '-   1    4   26     1    26    5.0139E-01  4.2246E-04   '
               '5.0096E-01  0.000E+00  0.000E+00  0.000E+00  1.32885E+02  '
               '5.353E-01  2.453E+00  4.083E-04  4.490E-04 -2.657E-05\n',
               '-   1    4   27     1    27    5.0096E-01  4.2231E-04   '
               '5.0054E-01  0.000E+00  0.000E+00  0.000E+00  1.32585E+02  '
               '5.351E-01  2.453E+00  4.082E-04  4.485E-04 -2.619E-05\n',
               '-   1    4   28     1    28    5.0054E-01  4.2215E-04   '
               '5.0012E-01  0.000E+00  0.000E+00  0.000E+00  1.32285E+02  '
               '5.349E-01  2.452E+00  4.082E-04  4.480E-04 -2.580E-05\n',
               '-   1    4   29     1    29    5.0012E-01  4.2200E-04   '
               '4.9970E-01  0.000E+00  0.000E+00  0.000E+00  1.31985E+02  '
               '5.347E-01  2.452E+00  4.081E-04  4.450E-04 -2.304E-05\n',
               '-   1    4   30     1    30    4.9970E-01  4.2185E-04   '
               '4.9928E-01  0.000E+00  0.000E+00  0.000E+00  1.31684E+02  '
               '5.345E-01  2.452E+00  4.080E-04  4.403E-04 -1.849E-05\n',
               '-   1    4   31     1    31    4.9928E-01  4.2170E-04   '
               '4.9885E-01  0.000E+00  0.000E+00  0.000E+00  1.31384E+02  '
               '5.343E-01  2.452E+00  4.080E-04  4.392E-04 -1.748E-05\n',
               '-   1    4   32     1    32    4.9885E-01  4.2155E-04   '
               '4.9843E-01  0.000E+00  0.000E+00  0.000E+00  1.31084E+02  '
               '5.341E-01  2.451E+00  4.079E-04  4.375E-04 -1.591E-05\n',
               '-   1    4   33     1    33    4.9843E-01  4.2140E-04   '
               '4.9801E-01  0.000E+00  0.000E+00  0.000E+00  1.30784E+02  '
               '5.339E-01  2.451E+00  4.078E-04  4.321E-04 -1.072E-05\n',
               '-   1    4   34     1    34    4.9801E-01  4.2125E-04   '
               '4.9759E-01  0.000E+00  0.000E+00  0.000E+00  1.30484E+02  '
               '5.337E-01  2.451E+00  4.078E-04  4.294E-04 -8.102E-06\n',
               '-   1    4   35     1    35    4.9759E-01  4.2110E-04   '
               '4.9717E-01  0.000E+00  0.000E+00  0.000E+00  1.30183E+02  '
               '5.335E-01  2.451E+00  4.077E-04  4.288E-04 -7.711E-06\n',
               '-   1    4   36     1    36    4.9717E-01  4.2095E-04   '
               '4.9675E-01  0.000E+00  0.000E+00  0.000E+00  1.29883E+02  '
               '5.333E-01  2.450E+00  4.076E-04  4.283E-04 -7.306E-06\n',
               '-   1    4   37     1    37    4.9675E-01  4.2080E-04   '
               '4.9633E-01  0.000E+00  0.000E+00  0.000E+00  1.29583E+02  '
               '5.330E-01  2.450E+00  4.076E-04  4.277E-04 -6.893E-06\n',
               '-   1    4   38     1    38    4.9633E-01  4.2065E-04   '
               '4.9591E-01  0.000E+00  0.000E+00  0.000E+00  1.29283E+02  '
               '5.328E-01  2.450E+00  4.075E-04  4.271E-04 -6.470E-06\n',
               '-   1    4   39     1    39    4.9591E-01  4.2050E-04   '
               '4.9549E-01  0.000E+00  0.000E+00  0.000E+00  1.28983E+02  '
               '5.326E-01  2.450E+00  4.074E-04  4.265E-04 -6.042E-06\n',
               '-   1    4   40     1    40    4.9549E-01  4.2035E-04   '
               '4.9507E-01  0.000E+00  0.000E+00  0.000E+00  1.28682E+02  '
               '5.324E-01  2.450E+00  4.074E-04  4.260E-04 -5.607E-06\n',
               '-   1    4   41     1    41    4.9507E-01  4.2020E-04   '
               '4.9465E-01  0.000E+00  0.000E+00  0.000E+00  1.28382E+02  '
               '5.322E-01  2.449E+00  4.073E-04  4.254E-04 -5.166E-06\n',
               '-   1    4   42     1    42    4.9465E-01  4.2004E-04   '
               '4.9423E-01  0.000E+00  0.000E+00  0.000E+00  1.28082E+02  '
               '5.320E-01  2.449E+00  4.072E-04  4.248E-04 -4.719E-06\n',
               '-   1    4   43     1    43    4.9423E-01  4.1989E-04   '
               '4.9381E-01  0.000E+00  0.000E+00  0.000E+00  1.27782E+02  '
               '5.318E-01  2.449E+00  4.072E-04  4.242E-04 -4.267E-06\n',
               '-   1    4   44     1    44    4.9381E-01  4.1974E-04   '
               '4.9339E-01  0.000E+00  0.000E+00  0.000E+00  1.27482E+02  '
               '5.316E-01  2.449E+00  4.071E-04  4.236E-04 -3.809E-06\n',
               '-   1    4   45     1    45    4.9339E-01  4.1959E-04   '
               '4.9297E-01  0.000E+00  0.000E+00  0.000E+00  1.27181E+02  '
               '5.314E-01  2.448E+00  4.070E-04  4.229E-04 -3.348E-06\n',
               '-   1    4   46     1    46    4.9297E-01  4.1944E-04   '
               '4.9255E-01  0.000E+00  0.000E+00  0.000E+00  1.26881E+02  '
               '5.312E-01  2.448E+00  4.070E-04  4.223E-04 -2.882E-06\n',
               '-   1    4   47     1    47    4.9255E-01  4.1929E-04   '
               '4.9213E-01  0.000E+00  0.000E+00  0.000E+00  1.26581E+02  '
               '5.310E-01  2.448E+00  4.069E-04  4.217E-04 -2.412E-06\n',
               '-   1    4   48     1    48    4.9213E-01  4.1914E-04   '
               '4.9171E-01  0.000E+00  0.000E+00  0.000E+00  1.26281E+02  '
               '5.308E-01  2.448E+00  4.068E-04  4.211E-04 -1.939E-06\n',
               '-   1    4   49     1    49    4.9171E-01  4.1899E-04   '
               '4.9129E-01  0.000E+00  0.000E+00  0.000E+00  1.25981E+02  '
               '5.306E-01  2.447E+00  4.068E-04  4.205E-04 -1.462E-06\n',
               '-   1    4   50     1    50    4.9129E-01  4.1884E-04   '
               '4.9087E-01  0.000E+00  0.000E+00  0.000E+00  1.25680E+02  '
               '5.304E-01  2.447E+00  4.067E-04  4.198E-04 -9.833E-07\n',
               '-   1    4   51     1    51    4.9087E-01  4.1869E-04   '
               '4.9045E-01  0.000E+00  0.000E+00  0.000E+00  1.25380E+02  '
               '5.302E-01  2.447E+00  4.066E-04  4.192E-04 -5.020E-07\n',
               '-   1    4   52     1    52    4.9045E-01  4.1854E-04   '
               '4.9003E-01  0.000E+00  0.000E+00  0.000E+00  1.25080E+02  '
               '5.300E-01  2.447E+00  4.066E-04  4.186E-04 -1.877E-08\n',
               '-   1    4   53     1    53    4.9003E-01  4.1839E-04   '
               '4.8961E-01  0.000E+00  0.000E+00  0.000E+00  1.24780E+02  '
               '5.298E-01  2.446E+00  4.065E-04  4.179E-04  4.656E-07\n',
               '-   1    4   54     1    54    4.8961E-01  4.1824E-04   '
               '4.8920E-01  0.000E+00  0.000E+00  0.000E+00  1.24480E+02  '
               '5.296E-01  2.446E+00  4.064E-04  4.173E-04  9.498E-07\n',
               '-   1    4   55     1    55    4.8920E-01  4.1809E-04   '
               '4.8878E-01  0.000E+00  0.000E+00  0.000E+00  1.24179E+02  '
               '5.294E-01  2.446E+00  4.064E-04  4.167E-04  1.434E-06\n',
               '-   1    4   56     1    56    4.8878E-01  4.1794E-04   '
               '4.8836E-01  0.000E+00  0.000E+00  0.000E+00  1.23879E+02  '
               '5.292E-01  2.446E+00  4.063E-04  4.160E-04  1.916E-06\n',
               '-   1    4   57     1    57    4.8836E-01  4.1779E-04   '
               '4.8794E-01  0.000E+00  0.000E+00  0.000E+00  1.23579E+02  '
               '5.290E-01  2.445E+00  4.062E-04  4.154E-04  2.398E-06\n',
               '-   1    4   58     1    58    4.8794E-01  4.1764E-04   '
               '4.8753E-01  0.000E+00  0.000E+00  0.000E+00  1.23279E+02  '
               '5.288E-01  2.445E+00  4.062E-04  4.148E-04  2.879E-06\n',
               '-   1    4   59     1    59    4.8753E-01  4.1749E-04   '
               '4.8711E-01  0.000E+00  0.000E+00  0.000E+00  1.22979E+02  '
               '5.286E-01  2.445E+00  4.061E-04  4.141E-04  3.357E-06\n',
               '-   1    4   60     1    60    4.8711E-01  4.1734E-04   '
               '4.8669E-01  0.000E+00  0.000E+00  0.000E+00  1.22678E+02  '
               '5.284E-01  2.445E+00  4.060E-04  4.135E-04  3.830E-06\n',
               '-   1    4   61     1    61    4.8669E-01  4.1719E-04   '
               '4.8627E-01  0.000E+00  0.000E+00  0.000E+00  1.22378E+02  '
               '5.282E-01  2.444E+00  4.060E-04  4.129E-04  4.299E-06\n',
               '-   1    4   62     1    62    4.8627E-01  4.1704E-04   '
               '4.8586E-01  0.000E+00  0.000E+00  0.000E+00  1.22078E+02  '
               '5.280E-01  2.444E+00  4.059E-04  4.123E-04  4.763E-06\n',
               '-   1    4   63     1    63    4.8586E-01  4.1689E-04   '
               '4.8544E-01  0.000E+00  0.000E+00  0.000E+00  1.21778E+02  '
               '5.278E-01  2.444E+00  4.058E-04  4.117E-04  5.217E-06\n',
               '-   1    4   64     1    64    4.8544E-01  4.1674E-04   '
               '4.8502E-01  0.000E+00  0.000E+00  0.000E+00  1.21478E+02  '
               '5.276E-01  2.444E+00  4.058E-04  4.111E-04  5.662E-06\n',
               '-   1    4   65     1    65    4.8502E-01  4.1659E-04   '
               '4.8461E-01  0.000E+00  0.000E+00  0.000E+00  1.21177E+02  '
               '5.274E-01  2.443E+00  4.057E-04  4.105E-04  6.099E-06\n',
               '-   1    4   66     1    66    4.8461E-01  4.1644E-04   '
               '4.8419E-01  0.000E+00  0.000E+00  0.000E+00  1.20877E+02  '
               '5.272E-01  2.443E+00  4.056E-04  4.114E-04  5.070E-06\n',
               '-   1    4   67     1    67    4.8419E-01  4.1629E-04   '
               '4.8377E-01  0.000E+00  0.000E+00  0.000E+00  1.20577E+02  '
               '5.270E-01  2.443E+00  4.056E-04  4.161E-04  1.633E-07\n',
               '-   1    4   68     1    68    4.8377E-01  4.1614E-04   '
               '4.8336E-01  0.000E+00  0.000E+00  0.000E+00  1.20277E+02  '
               '5.268E-01  2.443E+00  4.055E-04  4.156E-04  5.809E-07\n',
               '-   1    4   69     1    69    4.8336E-01  4.1599E-04   '
               '4.8294E-01  0.000E+00  0.000E+00  0.000E+00  1.19977E+02  '
               '5.266E-01  2.443E+00  4.054E-04  4.150E-04  9.824E-07\n',
               '-   1    4   70     1    70    4.8294E-01  4.1584E-04   '
               '4.8253E-01  0.000E+00  0.000E+00  0.000E+00  1.19676E+02  '
               '5.264E-01  2.442E+00  4.054E-04  4.145E-04  1.363E-06\n',
               '-   1    4   71     1    71    4.8253E-01  4.1569E-04   '
               '4.8211E-01  0.000E+00  0.000E+00  0.000E+00  1.19376E+02  '
               '5.262E-01  2.442E+00  4.053E-04  4.140E-04  1.726E-06\n',
               '-   1    4   72     1    72    4.8211E-01  4.1554E-04   '
               '4.8169E-01  0.000E+00  0.000E+00  0.000E+00  1.19076E+02  '
               '5.260E-01  2.442E+00  4.053E-04  4.182E-04 -2.641E-06\n',
               '-   1    4   73     1    73    4.8169E-01  4.1540E-04   '
               '4.8128E-01  0.000E+00  0.000E+00  0.000E+00  1.18776E+02  '
               '5.258E-01  2.442E+00  4.052E-04  4.194E-04 -3.991E-06\n',
               '-   1    4   74     1    74    4.8128E-01  4.1525E-04   '
               '4.8086E-01  0.000E+00  0.000E+00  0.000E+00  1.18476E+02  '
               '5.256E-01  2.441E+00  4.051E-04  4.190E-04 -3.732E-06\n',
               '-   1    4   75     1    75    4.8086E-01  4.1510E-04   '
               '4.8045E-01  0.000E+00  0.000E+00  0.000E+00  1.18175E+02  '
               '5.254E-01  2.441E+00  4.051E-04  4.186E-04 -3.515E-06\n',
               '-   1    4   76     1    76    4.8045E-01  4.1495E-04   '
               '4.8003E-01  0.000E+00  0.000E+00  0.000E+00  1.17875E+02  '
               '5.252E-01  2.441E+00  4.050E-04  4.183E-04 -3.345E-06\n',
               '-   1    4   77     1    77    4.8003E-01  4.1480E-04   '
               '4.7962E-01  0.000E+00  0.000E+00  0.000E+00  1.17575E+02  '
               '5.250E-01  2.441E+00  4.049E-04  4.180E-04 -3.229E-06\n',
               '-   1    4   78     1    78    4.7962E-01  4.1465E-04   '
               '4.7920E-01  0.000E+00  0.000E+00  0.000E+00  1.17275E+02  '
               '5.248E-01  2.440E+00  4.049E-04  4.178E-04 -3.171E-06\n',
               '-   1    4   79     1    79    4.7920E-01  4.1450E-04   '
               '4.7879E-01  0.000E+00  0.000E+00  0.000E+00  1.16975E+02  '
               '5.246E-01  2.440E+00  4.048E-04  4.177E-04 -3.177E-06\n',
               '-   1    4   80     1    80    4.7879E-01  4.1435E-04   '
               '4.7837E-01  0.000E+00  0.000E+00  0.000E+00  1.16674E+02  '
               '5.244E-01  2.440E+00  4.047E-04  4.176E-04 -3.255E-06\n',
               '-   1    4   81     1    81    4.7837E-01  4.1420E-04   '
               '4.7796E-01  0.000E+00  0.000E+00  0.000E+00  1.16374E+02  '
               '5.242E-01  2.440E+00  4.047E-04  4.176E-04 -3.412E-06\n',
               '-   1    4   82     1    82    4.7796E-01  4.1405E-04   '
               '4.7755E-01  0.000E+00  0.000E+00  0.000E+00  1.16074E+02  '
               '5.240E-01  2.439E+00  4.046E-04  4.177E-04 -3.653E-06\n',
               '-   1    4   83     1    83    4.7755E-01  4.1390E-04   '
               '4.7713E-01  0.000E+00  0.000E+00  0.000E+00  1.15774E+02  '
               '5.238E-01  2.439E+00  4.045E-04  4.179E-04 -3.988E-06\n',
               '-   1    4   84     1    84    4.7713E-01  4.1375E-04   '
               '4.7672E-01  0.000E+00  0.000E+00  0.000E+00  1.15474E+02  '
               '5.236E-01  2.439E+00  4.045E-04  4.182E-04 -4.422E-06\n',
               '-   1    4   85     1    85    4.7672E-01  4.1360E-04   '
               '4.7631E-01  0.000E+00  0.000E+00  0.000E+00  1.15173E+02  '
               '5.233E-01  2.439E+00  4.044E-04  4.186E-04 -4.965E-06\n',
               '-   1    4   86     1    86    4.7631E-01  4.1345E-04   '
               '4.7589E-01  0.000E+00  0.000E+00  0.000E+00  1.14873E+02  '
               '5.231E-01  2.438E+00  4.043E-04  4.191E-04 -5.626E-06\n',
               '-   1    4   87     1    87    4.7589E-01  4.1330E-04   '
               '4.7548E-01  0.000E+00  0.000E+00  0.000E+00  1.14573E+02  '
               '5.229E-01  2.438E+00  4.043E-04  4.197E-04 -6.409E-06\n',
               '-   1    4   88     1    88    4.7548E-01  4.1316E-04   '
               '4.7507E-01  0.000E+00  0.000E+00  0.000E+00  1.14273E+02  '
               '5.227E-01  2.438E+00  4.042E-04  4.205E-04 -7.323E-06\n',
               '-   1    4   89     1    89    4.7507E-01  4.1301E-04   '
               '4.7465E-01  0.000E+00  0.000E+00  0.000E+00  1.13973E+02  '
               '5.225E-01  2.438E+00  4.041E-04  4.214E-04 -8.372E-06\n',
               '-   1    4   90     1    90    4.7465E-01  4.1286E-04   '
               '4.7424E-01  0.000E+00  0.000E+00  0.000E+00  1.13672E+02  '
               '5.223E-01  2.437E+00  4.041E-04  4.239E-04 -1.100E-05\n',
               '-   1    4   91     1    91    4.7424E-01  4.1271E-04   '
               '4.7383E-01  0.000E+00  0.000E+00  0.000E+00  1.13372E+02  '
               '5.221E-01  2.437E+00  4.040E-04  4.349E-04 -2.220E-05\n',
               '-   1    4   92     1    92    4.7383E-01  4.1256E-04   '
               '4.7341E-01  0.000E+00  0.000E+00  0.000E+00  1.13072E+02  '
               '5.219E-01  2.437E+00  4.039E-04  4.363E-04 -2.375E-05\n',
               '-   1    4   93     1    93    4.7341E-01  4.1241E-04   '
               '4.7300E-01  0.000E+00  0.000E+00  0.000E+00  1.12772E+02  '
               '5.217E-01  2.437E+00  4.039E-04  4.601E-04 -4.765E-05\n',
               '-   1    4   94     1    94    4.7300E-01  4.1226E-04   '
               '4.7259E-01  0.000E+00  0.000E+00  0.000E+00  1.12472E+02  '
               '5.215E-01  2.436E+00  4.038E-04  4.620E-04 -4.973E-05\n',
               '-   1    4   95     1    95    4.7259E-01  4.1211E-04   '
               '4.7218E-01  0.000E+00  0.000E+00  0.000E+00  1.12171E+02  '
               '5.213E-01  2.436E+00  4.037E-04  4.641E-04 -5.200E-05\n',
               '-   1    4   96     1    96    4.7218E-01  4.1196E-04   '
               '4.7177E-01  0.000E+00  0.000E+00  0.000E+00  1.11871E+02  '
               '5.211E-01  2.436E+00  4.037E-04  4.664E-04 -5.442E-05\n',
               '-   1    4   97     1    97    4.7177E-01  4.1182E-04   '
               '4.7135E-01  0.000E+00  0.000E+00  0.000E+00  1.11571E+02  '
               '5.209E-01  2.436E+00  4.036E-04  4.640E-04 -5.222E-05\n',
               '-   1    4   98     1    98    4.7135E-01  4.1167E-04   '
               '4.7094E-01  0.000E+00  0.000E+00  0.000E+00  1.11271E+02  '
               '5.207E-01  2.436E+00  4.035E-04  4.480E-04 -3.636E-05\n',
               '-   1    4   99     1    99    4.7094E-01  4.1152E-04   '
               '4.7053E-01  0.000E+00  0.000E+00  0.000E+00  1.10971E+02  '
               '5.205E-01  2.435E+00  4.035E-04  4.316E-04 -2.008E-05\n',
               '-   1    4  100     1   100    4.7053E-01  4.1137E-04   '
               '4.7012E-01  0.000E+00  0.000E+00  0.000E+00  1.10670E+02  '
               '5.203E-01  2.435E+00  4.034E-04  4.147E-04 -3.333E-06\n',
               '-\n',
               '-\n',
               '-\n',
               '-1\n',
               '-  VOLUMETRIC BUDGET FOR UNSATURATED ZONE BENEATH STREAMS AT '
               'END OF TIME STEP    30 STRESS PERIOD  26\n',
               '-  '
               '------------------------------------------------------------------------------------------------\n',
               '-\n',
               '-    CUMULATIVE VOLUMES             L**3    RATES FOR THIS '
               'TIME STEP         L**3/T\n',
               '-    ------------------                     '
               '------------------------\n',
               '-\n',
               '-\n',
               '-          STREAM LOSS =     27421036.0000            STREAM '
               'LOSS =        4.1878E-02\n',
               '-    CHANGE IN STORAGE =       306908.6875      CHANGE IN '
               'STORAGE =       -1.3901E-03\n',
               '-       RECHARGE TO GW =     27117910.0000         RECHARGE TO '
               'GW =        4.3268E-02\n',
               '-\n',
               '-             TOTAL IN =     27421036.0000               TOTAL '
               'IN =        4.3268E-02\n',
               '-\n',
               '-            TOTAL OUT =     27424818.0000              TOTAL '
               'OUT =        4.3268E-02\n',
               '-\n',
               '-             IN - OUT =        -3782.0000               IN - '
               'OUT =        2.6077E-08\n',
               '-\n',
               '-  PERCENT DISCREPANCY =           -0.00      PERCENT '
               'DISCREPANCY =             0.00\n',
               '-\n',
               '-\n',
               '-\n',
               '-1\n',
               '-  VOLUMETRIC BUDGET FOR ENTIRE MODEL AT END OF TIME STEP   '
               '30, STRESS PERIOD  26\n',
               '-  '
               '------------------------------------------------------------------------------\n',
               '-\n',
               '-     CUMULATIVE VOLUMES      L**3       RATES FOR THIS TIME '
               'STEP      L**3/T\n',
               '-     ------------------                 '
               '------------------------\n',
               '-\n',
               '-           IN:                                      IN:\n',
               '-           ---                                      ---\n',
               '-             STORAGE =    12326347.0000               STORAGE '
               '=           0.1906\n',
               '-       CONSTANT HEAD =           0.0000         CONSTANT HEAD '
               '=           0.0000\n',
               '-     HEAD DEP BOUNDS =           0.0000       HEAD DEP BOUNDS '
               '=           0.0000\n',
               '-      STREAM LEAKAGE =    27117810.0000        STREAM LEAKAGE '
               '=       4.3268E-02\n',
               '-\n',
               '-            TOTAL IN =    39444156.0000              TOTAL IN '
               '=           0.2339\n',
               '-\n',
               '-          OUT:                                     OUT:\n',
               '-          ----                                     ----\n',
               '-             STORAGE =    15666716.0000               STORAGE '
               '=           0.0000\n',
               '-       CONSTANT HEAD =           0.0000         CONSTANT HEAD '
               '=           0.0000\n',
               '-     HEAD DEP BOUNDS =    23777326.0000       HEAD DEP BOUNDS '
               '=           0.2338\n',
               '-      STREAM LEAKAGE =           0.0000        STREAM LEAKAGE '
               '=           0.0000\n',
               '-\n',
               '-           TOTAL OUT =    39444040.0000             TOTAL OUT '
               '=           0.2338\n',
               '-\n',
               '-            IN - OUT =         116.0000              IN - OUT '
               '=       6.8456E-05\n',
               '-\n',
               '- PERCENT DISCREPANCY =           0.00     PERCENT DISCREPANCY '
               '=           0.03\n',
               '-\n',
               '-\n',
               '-\n',
               '-\n',
               '-\n',
               '-\n',
               '-         TIME SUMMARY AT END OF TIME STEP   30 IN STRESS '
               'PERIOD   26\n',
               '-                    SECONDS     MINUTES      HOURS       '
               'DAYS        YEARS\n',
               '-                    '
               '-----------------------------------------------------------\n',
               '-   TIME STEP LENGTH 2.49961E+05  4166.0      69.434      '
               '2.8931     7.92080E-03\n',
               '- STRESS PERIOD TIME 2.59200E+06  43200.      720.00      '
               '30.000     8.21355E-02\n',
               '-         TOTAL TIME 6.73919E+07 1.12320E+06  18720.      '
               '780.00      2.1355    \n',
               '-1\n',
               '-1\n',
               '-                            STRESS PERIOD NO.   27, LENGTH '
               '=   2592000.    \n',
               '-                            '
               '-----------------------------------------------\n',
               '-\n',
               '-                              NUMBER OF TIME STEPS =    30\n',
               '-\n',
               '-                               MULTIPLIER FOR DELT =     '
               '1.100\n',
               '-\n',
               '-                            INITIAL TIME STEP SIZE =   '
               '15757.40    \n',
               '-\n',
               '- REUSING NON-PARAMETER GHB CELLS FROM LAST STRESS PERIOD\n',
               '-\n',
               '-      7 GHB CELLS\n',
               '- \n',
               '- SOLVING FOR HEAD \n',
               '-\n',
               '- NO OUTPUT CONTROL FOR STRESS PERIOD   27   TIME STEP    1\n',
               '- \n',
               '- SOLVING FOR HEAD \n',
               '-\n',
               '- NO OUTPUT CONTROL FOR STRESS PERIOD   27   TIME STEP    2\n',
               '- \n',
               '- SOLVING FOR HEAD \n',
               '-\n',
               '- NO OUTPUT CONTROL FOR STRESS PERIOD   27   TIME STEP    3\n',
               '- \n',
               '- SOLVING FOR HEAD \n',
               '-\n',
               '- NO OUTPUT CONTROL FOR STRESS PERIOD   27   TIME STEP    4\n',
               '- \n',
               '- SOLVING FOR HEAD \n',
               '-\n',
               '- NO OUTPUT CONTROL FOR STRESS PERIOD   27   TIME STEP    5\n',
               '- \n',
               '- SOLVING FOR HEAD \n',
               '-\n',
               '- NO OUTPUT CONTROL FOR STRESS PERIOD   27   TIME STEP    6\n',
               '- \n',
               '- SOLVING FOR HEAD \n',
               '-\n',
               '- NO OUTPUT CONTROL FOR STRESS PERIOD   27   TIME STEP    7\n',
               '- \n',
               '- SOLVING FOR HEAD \n',
               '-\n',
               '- NO OUTPUT CONTROL FOR STRESS PERIOD   27   TIME STEP    8\n',
               '- \n',
               '- SOLVING FOR HEAD \n',
               '-\n',
               '- NO OUTPUT CONTROL FOR STRESS PERIOD   27   TIME STEP    9\n',
               '- \n',
               '- SOLVING FOR HEAD \n',
               '-\n',
               '- NO OUTPUT CONTROL FOR STRESS PERIOD   27   TIME STEP   10\n',
               '- \n',
               '- SOLVING FOR HEAD \n',
               '-\n',
               '- NO OUTPUT CONTROL FOR STRESS PERIOD   27   TIME STEP   11\n',
               '- \n',
               '- SOLVING FOR HEAD \n',
               '-\n',
               '- NO OUTPUT CONTROL FOR STRESS PERIOD   27   TIME STEP   12\n',
               '- \n',
               '- SOLVING FOR HEAD \n',
               '-\n',
               '- NO OUTPUT CONTROL FOR STRESS PERIOD   27   TIME STEP   13\n',
               '- \n',
               '- SOLVING FOR HEAD \n',
               '-\n',
               '- NO OUTPUT CONTROL FOR STRESS PERIOD   27   TIME STEP   14\n',
               '- \n',
               '- SOLVING FOR HEAD \n',
               '-\n',
               '- NO OUTPUT CONTROL FOR STRESS PERIOD   27   TIME STEP   15\n',
               '- \n',
               '- SOLVING FOR HEAD \n',
               '-\n',
               '- NO OUTPUT CONTROL FOR STRESS PERIOD   27   TIME STEP   16\n',
               '- \n',
               '- SOLVING FOR HEAD \n',
               '-\n',
               '- NO OUTPUT CONTROL FOR STRESS PERIOD   27   TIME STEP   17\n',
               '- \n',
               '- SOLVING FOR HEAD \n',
               '-\n',
               '- NO OUTPUT CONTROL FOR STRESS PERIOD   27   TIME STEP   18\n',
               '- \n',
               '- SOLVING FOR HEAD \n',
               '-\n',
               '- NO OUTPUT CONTROL FOR STRESS PERIOD   27   TIME STEP   19\n',
               '- \n',
               '- SOLVING FOR HEAD \n',
               '-\n',
               '- NO OUTPUT CONTROL FOR STRESS PERIOD   27   TIME STEP   20\n',
               '- \n',
               '- SOLVING FOR HEAD \n',
               '-\n',
               '- NO OUTPUT CONTROL FOR STRESS PERIOD   27   TIME STEP   21\n',
               '- \n',
               '- SOLVING FOR HEAD \n',
               '-\n',
               '- NO OUTPUT CONTROL FOR STRESS PERIOD   27   TIME STEP   22\n',
               '- \n',
               '- SOLVING FOR HEAD \n',
               '-\n',
               '- NO OUTPUT CONTROL FOR STRESS PERIOD   27   TIME STEP   23\n',
               '- \n',
               '- SOLVING FOR HEAD \n',
               '-\n',
               '- NO OUTPUT CONTROL FOR STRESS PERIOD   27   TIME STEP   24\n',
               '- \n',
               '- SOLVING FOR HEAD \n',
               '-\n',
               '- NO OUTPUT CONTROL FOR STRESS PERIOD   27   TIME STEP   25\n',
               '- \n',
               '- SOLVING FOR HEAD \n',
               '-\n',
               '- NO OUTPUT CONTROL FOR STRESS PERIOD   27   TIME STEP   26\n',
               '- \n',
               '- SOLVING FOR HEAD \n',
               '-\n',
               '- NO OUTPUT CONTROL FOR STRESS PERIOD   27   TIME STEP   27\n',
               '- \n',
               '- SOLVING FOR HEAD \n',
               '-\n',
               '- NO OUTPUT CONTROL FOR STRESS PERIOD   27   TIME STEP   28\n',
               '- \n',
               '- SOLVING FOR HEAD \n',
               '-\n',
               '- NO OUTPUT CONTROL FOR STRESS PERIOD   27   TIME STEP   29\n',
               '- \n',
               '- SOLVING FOR HEAD \n',
               '-\n',
               '- NO OUTPUT CONTROL FOR STRESS PERIOD   27   TIME STEP   30\n',
               '-\n',
               '-\n',
               '-\n',
               '- STREAM LISTING     PERIOD     27   STEP       30\n',
               '-\n',
               '- LAYER ROW COL. STREAM  RCH.   FLOW INTO    STREAM     FLOW '
               'OUT OF   OVRLND.    DIRECT     STREAM      STREAM      '
               'STREAM     STREAM  STREAMBED   FLOW TO   CHNG. UNSAT. \n',
               '-                SEG.NO.  NO.   STRM. RCH.    LOSS       STRM. '
               'RCH.   RUNOFF     PRECIP       ET         HEAD        '
               'DEPTH      WIDTH  CONDCTNC.   WAT. TAB.\n',
               '-\n',
               '-   1    4    1     1     1    7.5000E-01  5.0798E-04   '
               '7.4949E-01  0.000E+00  0.000E+00  0.000E+00  1.40495E+02  '
               '6.447E-01  2.584E+00  4.440E-04  5.399E-04 -3.195E-05\n',
               '-   1    4    2     1     2    7.4949E-01  5.0781E-04   '
               '7.4898E-01  0.000E+00  0.000E+00  0.000E+00  1.40194E+02  '
               '6.445E-01  2.584E+00  4.439E-04  5.397E-04 -3.189E-05\n',
               '-   1    4    3     1     3    7.4898E-01  5.0764E-04   '
               '7.4847E-01  0.000E+00  0.000E+00  0.000E+00  1.39894E+02  '
               '6.443E-01  2.583E+00  4.439E-04  5.395E-04 -3.183E-05\n',
               '-   1    4    4     1     4    7.4847E-01  5.0747E-04   '
               '7.4796E-01  0.000E+00  0.000E+00  0.000E+00  1.39594E+02  '
               '6.441E-01  2.583E+00  4.438E-04  5.392E-04 -3.174E-05\n',
               '-   1    4    5     1     5    7.4796E-01  5.0730E-04   '
               '7.4746E-01  0.000E+00  0.000E+00  0.000E+00  1.39294E+02  '
               '6.438E-01  2.583E+00  4.437E-04  5.390E-04 -3.165E-05\n',
               '-   1    4    6     1     6    7.4746E-01  5.0714E-04   '
               '7.4695E-01  0.000E+00  0.000E+00  0.000E+00  1.38994E+02  '
               '6.436E-01  2.583E+00  4.436E-04  5.387E-04 -3.154E-05\n',
               '-   1    4    7     1     7    7.4695E-01  5.0697E-04   '
               '7.4644E-01  0.000E+00  0.000E+00  0.000E+00  1.38693E+02  '
               '6.434E-01  2.582E+00  4.436E-04  5.384E-04 -3.142E-05\n',
               '-   1    4    8     1     8    7.4644E-01  5.0680E-04   '
               '7.4594E-01  0.000E+00  0.000E+00  0.000E+00  1.38393E+02  '
               '6.432E-01  2.582E+00  4.435E-04  5.381E-04 -3.128E-05\n',
               '-   1    4    9     1     9    7.4594E-01  5.0663E-04   '
               '7.4543E-01  0.000E+00  0.000E+00  0.000E+00  1.38093E+02  '
               '6.430E-01  2.582E+00  4.434E-04  5.378E-04 -3.113E-05\n',
               '-   1    4   10     1    10    7.4543E-01  5.0646E-04   '
               '7.4492E-01  0.000E+00  0.000E+00  0.000E+00  1.37793E+02  '
               '6.428E-01  2.582E+00  4.434E-04  5.374E-04 -3.097E-05\n',
               '-   1    4   11     1    11    7.4492E-01  5.0629E-04   '
               '7.4442E-01  0.000E+00  0.000E+00  0.000E+00  1.37493E+02  '
               '6.426E-01  2.581E+00  4.433E-04  5.371E-04 -3.079E-05\n',
               '-   1    4   12     1    12    7.4442E-01  5.0612E-04   '
               '7.4391E-01  0.000E+00  0.000E+00  0.000E+00  1.37192E+02  '
               '6.424E-01  2.581E+00  4.432E-04  5.367E-04 -3.060E-05\n',
               '-   1    4   13     1    13    7.4391E-01  5.0595E-04   '
               '7.4341E-01  0.000E+00  0.000E+00  0.000E+00  1.36892E+02  '
               '6.422E-01  2.581E+00  4.432E-04  5.363E-04 -3.039E-05\n',
               '-   1    4   14     1    14    7.4341E-01  5.0578E-04   '
               '7.4290E-01  0.000E+00  0.000E+00  0.000E+00  1.36592E+02  '
               '6.420E-01  2.581E+00  4.431E-04  5.321E-04 -2.632E-05\n',
               '-   1    4   15     1    15    7.4290E-01  5.0561E-04   '
               '7.4239E-01  0.000E+00  0.000E+00  0.000E+00  1.36292E+02  '
               '6.418E-01  2.580E+00  4.430E-04  5.283E-04 -2.266E-05\n',
               '-   1    4   16     1    16    7.4239E-01  5.0545E-04   '
               '7.4189E-01  0.000E+00  0.000E+00  0.000E+00  1.35992E+02  '
               '6.416E-01  2.580E+00  4.430E-04  5.279E-04 -2.243E-05\n',
               '-   1    4   17     1    17    7.4189E-01  5.0528E-04   '
               '7.4138E-01  0.000E+00  0.000E+00  0.000E+00  1.35691E+02  '
               '6.414E-01  2.580E+00  4.429E-04  5.275E-04 -2.218E-05\n',
               '-   1    4   18     1    18    7.4138E-01  5.0511E-04   '
               '7.4088E-01  0.000E+00  0.000E+00  0.000E+00  1.35391E+02  '
               '6.412E-01  2.580E+00  4.428E-04  5.204E-04 -1.534E-05\n',
               '-   1    4   19     1    19    7.4088E-01  5.0494E-04   '
               '7.4037E-01  0.000E+00  0.000E+00  0.000E+00  1.35091E+02  '
               '6.409E-01  2.579E+00  4.428E-04  5.179E-04 -1.301E-05\n',
               '-   1    4   20     1    20    7.4037E-01  5.0477E-04   '
               '7.3987E-01  0.000E+00  0.000E+00  0.000E+00  1.34791E+02  '
               '6.407E-01  2.579E+00  4.427E-04  5.175E-04 -1.277E-05\n',
               '-   1    4   21     1    21    7.3987E-01  5.0460E-04   '
               '7.3936E-01  0.000E+00  0.000E+00  0.000E+00  1.34491E+02  '
               '6.405E-01  2.579E+00  4.426E-04  5.171E-04 -1.251E-05\n',
               '-   1    4   22     1    22    7.3936E-01  5.0443E-04   '
               '7.3886E-01  0.000E+00  0.000E+00  0.000E+00  1.34190E+02  '
               '6.403E-01  2.579E+00  4.426E-04  5.167E-04 -1.225E-05\n',
               '-   1    4   23     1    23    7.3886E-01  5.0426E-04   '
               '7.3836E-01  0.000E+00  0.000E+00  0.000E+00  1.33890E+02  '
               '6.401E-01  2.578E+00  4.425E-04  5.162E-04 -1.197E-05\n',
               '-   1    4   24     1    24    7.3836E-01  5.0410E-04   '
               '7.3785E-01  0.000E+00  0.000E+00  0.000E+00  1.33590E+02  '
               '6.399E-01  2.578E+00  4.424E-04  5.158E-04 -1.168E-05\n',
               '-   1    4   25     1    25    7.3785E-01  5.0393E-04   '
               '7.3735E-01  0.000E+00  0.000E+00  0.000E+00  1.33290E+02  '
               '6.397E-01  2.578E+00  4.424E-04  5.153E-04 -1.138E-05\n',
               '-   1    4   26     1    26    7.3735E-01  5.0376E-04   '
               '7.3684E-01  0.000E+00  0.000E+00  0.000E+00  1.32990E+02  '
               '6.395E-01  2.578E+00  4.423E-04  5.148E-04 -1.107E-05\n',
               '-   1    4   27     1    27    7.3684E-01  5.0359E-04   '
               '7.3634E-01  0.000E+00  0.000E+00  0.000E+00  1.32689E+02  '
               '6.393E-01  2.577E+00  4.422E-04  5.143E-04 -1.075E-05\n',
               '-   1    4   28     1    28    7.3634E-01  5.0342E-04   '
               '7.3584E-01  0.000E+00  0.000E+00  0.000E+00  1.32389E+02  '
               '6.391E-01  2.577E+00  4.422E-04  5.138E-04 -1.041E-05\n',
               '-   1    4   29     1    29    7.3584E-01  5.0325E-04   '
               '7.3533E-01  0.000E+00  0.000E+00  0.000E+00  1.32089E+02  '
               '6.389E-01  2.577E+00  4.421E-04  5.133E-04 -1.007E-05\n',
               '-   1    4   30     1    30    7.3533E-01  5.0309E-04   '
               '7.3483E-01  0.000E+00  0.000E+00  0.000E+00  1.31789E+02  '
               '6.387E-01  2.577E+00  4.420E-04  5.128E-04 -9.716E-06\n',
               '-   1    4   31     1    31    7.3483E-01  5.0292E-04   '
               '7.3433E-01  0.000E+00  0.000E+00  0.000E+00  1.31488E+02  '
               '6.385E-01  2.576E+00  4.420E-04  5.123E-04 -9.352E-06\n',
               '-   1    4   32     1    32    7.3433E-01  5.0275E-04   '
               '7.3382E-01  0.000E+00  0.000E+00  0.000E+00  1.31188E+02  '
               '6.383E-01  2.576E+00  4.419E-04  5.117E-04 -8.980E-06\n',
               '-   1    4   33     1    33    7.3382E-01  5.0258E-04   '
               '7.3332E-01  0.000E+00  0.000E+00  0.000E+00  1.30888E+02  '
               '6.381E-01  2.576E+00  4.418E-04  5.112E-04 -8.600E-06\n',
               '-   1    4   34     1    34    7.3332E-01  5.0241E-04   '
               '7.3282E-01  0.000E+00  0.000E+00  0.000E+00  1.30588E+02  '
               '6.378E-01  2.576E+00  4.418E-04  5.106E-04 -8.212E-06\n',
               '-   1    4   35     1    35    7.3282E-01  5.0224E-04   '
               '7.3232E-01  0.000E+00  0.000E+00  0.000E+00  1.30288E+02  '
               '6.376E-01  2.575E+00  4.417E-04  5.101E-04 -7.815E-06\n',
               '-   1    4   36     1    36    7.3232E-01  5.0208E-04   '
               '7.3182E-01  0.000E+00  0.000E+00  0.000E+00  1.29987E+02  '
               '6.374E-01  2.575E+00  4.416E-04  5.095E-04 -7.411E-06\n',
               '-   1    4   37     1    37    7.3182E-01  5.0191E-04   '
               '7.3131E-01  0.000E+00  0.000E+00  0.000E+00  1.29687E+02  '
               '6.372E-01  2.575E+00  4.416E-04  5.089E-04 -6.998E-06\n',
               '-   1    4   38     1    38    7.3131E-01  5.0174E-04   '
               '7.3081E-01  0.000E+00  0.000E+00  0.000E+00  1.29387E+02  '
               '6.370E-01  2.575E+00  4.415E-04  5.083E-04 -6.578E-06\n',
               '-   1    4   39     1    39    7.3081E-01  5.0157E-04   '
               '7.3031E-01  0.000E+00  0.000E+00  0.000E+00  1.29087E+02  '
               '6.368E-01  2.574E+00  4.414E-04  5.077E-04 -6.151E-06\n',
               '-   1    4   40     1    40    7.3031E-01  5.0140E-04   '
               '7.2981E-01  0.000E+00  0.000E+00  0.000E+00  1.28787E+02  '
               '6.366E-01  2.574E+00  4.414E-04  5.071E-04 -5.717E-06\n',
               '-   1    4   41     1    41    7.2981E-01  5.0124E-04   '
               '7.2931E-01  0.000E+00  0.000E+00  0.000E+00  1.28486E+02  '
               '6.364E-01  2.574E+00  4.413E-04  5.065E-04 -5.278E-06\n',
               '-   1    4   42     1    42    7.2931E-01  5.0107E-04   '
               '7.2881E-01  0.000E+00  0.000E+00  0.000E+00  1.28186E+02  '
               '6.362E-01  2.574E+00  4.412E-04  5.059E-04 -4.833E-06\n',
               '-   1    4   43     1    43    7.2881E-01  5.0090E-04   '
               '7.2831E-01  0.000E+00  0.000E+00  0.000E+00  1.27886E+02  '
               '6.360E-01  2.573E+00  4.412E-04  5.053E-04 -4.382E-06\n',
               '-   1    4   44     1    44    7.2831E-01  5.0073E-04   '
               '7.2780E-01  0.000E+00  0.000E+00  0.000E+00  1.27586E+02  '
               '6.358E-01  2.573E+00  4.411E-04  5.047E-04 -3.928E-06\n',
               '-   1    4   45     1    45    7.2780E-01  5.0057E-04   '
               '7.2730E-01  0.000E+00  0.000E+00  0.000E+00  1.27286E+02  '
               '6.356E-01  2.573E+00  4.410E-04  5.040E-04 -3.470E-06\n',
               '-   1    4   46     1    46    7.2730E-01  5.0040E-04   '
               '7.2680E-01  0.000E+00  0.000E+00  0.000E+00  1.26985E+02  '
               '6.354E-01  2.573E+00  4.409E-04  5.034E-04 -3.008E-06\n',
               '-   1    4   47     1    47    7.2680E-01  5.0023E-04   '
               '7.2630E-01  0.000E+00  0.000E+00  0.000E+00  1.26685E+02  '
               '6.352E-01  2.572E+00  4.409E-04  5.028E-04 -2.542E-06\n',
               '-   1    4   48     1    48    7.2630E-01  5.0006E-04   '
               '7.2580E-01  0.000E+00  0.000E+00  0.000E+00  1.26385E+02  '
               '6.350E-01  2.572E+00  4.408E-04  5.021E-04 -2.073E-06\n',
               '-   1    4   49     1    49    7.2580E-01  4.9989E-04   '
               '7.2530E-01  0.000E+00  0.000E+00  0.000E+00  1.26085E+02  '
               '6.347E-01  2.572E+00  4.407E-04  5.015E-04 -1.602E-06\n',
               '-   1    4   50     1    50    7.2530E-01  4.9973E-04   '
               '7.2480E-01  0.000E+00  0.000E+00  0.000E+00  1.25785E+02  '
               '6.345E-01  2.572E+00  4.407E-04  5.009E-04 -1.129E-06\n',
               '-   1    4   51     1    51    7.2480E-01  4.9956E-04   '
               '7.2430E-01  0.000E+00  0.000E+00  0.000E+00  1.25484E+02  '
               '6.343E-01  2.571E+00  4.406E-04  5.002E-04 -6.554E-07\n',
               '-   1    4   52     1    52    7.2430E-01  4.9939E-04   '
               '7.2380E-01  0.000E+00  0.000E+00  0.000E+00  1.25184E+02  '
               '6.341E-01  2.571E+00  4.405E-04  4.996E-04 -1.804E-07\n',
               '-   1    4   53     1    53    7.2380E-01  4.9922E-04   '
               '7.2331E-01  0.000E+00  0.000E+00  0.000E+00  1.24884E+02  '
               '6.339E-01  2.571E+00  4.405E-04  4.989E-04  2.932E-07\n',
               '-   1    4   54     1    54    7.2331E-01  4.9906E-04   '
               '7.2281E-01  0.000E+00  0.000E+00  0.000E+00  1.24584E+02  '
               '6.337E-01  2.571E+00  4.404E-04  4.983E-04  7.660E-07\n',
               '-   1    4   55     1    55    7.2281E-01  4.9889E-04   '
               '7.2231E-01  0.000E+00  0.000E+00  0.000E+00  1.24284E+02  '
               '6.335E-01  2.570E+00  4.403E-04  4.977E-04  1.238E-06\n',
               '-   1    4   56     1    56    7.2231E-01  4.9872E-04   '
               '7.2181E-01  0.000E+00  0.000E+00  0.000E+00  1.23983E+02  '
               '6.333E-01  2.570E+00  4.403E-04  4.970E-04  1.707E-06\n',
               '-   1    4   57     1    57    7.2181E-01  4.9855E-04   '
               '7.2131E-01  0.000E+00  0.000E+00  0.000E+00  1.23683E+02  '
               '6.331E-01  2.570E+00  4.402E-04  4.964E-04  2.173E-06\n',
               '-   1    4   58     1    58    7.2131E-01  4.9839E-04   '
               '7.2081E-01  0.000E+00  0.000E+00  0.000E+00  1.23383E+02  '
               '6.329E-01  2.570E+00  4.401E-04  4.958E-04  2.635E-06\n',
               '-   1    4   59     1    59    7.2081E-01  4.9822E-04   '
               '7.2031E-01  0.000E+00  0.000E+00  0.000E+00  1.23083E+02  '
               '6.327E-01  2.569E+00  4.401E-04  4.951E-04  3.091E-06\n',
               '-   1    4   60     1    60    7.2031E-01  4.9805E-04   '
               '7.1982E-01  0.000E+00  0.000E+00  0.000E+00  1.22782E+02  '
               '6.325E-01  2.569E+00  4.400E-04  4.945E-04  3.539E-06\n',
               '-   1    4   61     1    61    7.1982E-01  4.9789E-04   '
               '7.1932E-01  0.000E+00  0.000E+00  0.000E+00  1.22482E+02  '
               '6.323E-01  2.569E+00  4.399E-04  4.939E-04  3.979E-06\n',
               '-   1    4   62     1    62    7.1932E-01  4.9772E-04   '
               '7.1882E-01  0.000E+00  0.000E+00  0.000E+00  1.22182E+02  '
               '6.321E-01  2.569E+00  4.399E-04  4.933E-04  4.409E-06\n',
               '-   1    4   63     1    63    7.1882E-01  4.9755E-04   '
               '7.1832E-01  0.000E+00  0.000E+00  0.000E+00  1.21882E+02  '
               '6.319E-01  2.568E+00  4.398E-04  4.927E-04  4.828E-06\n',
               '-   1    4   64     1    64    7.1832E-01  4.9738E-04   '
               '7.1782E-01  0.000E+00  0.000E+00  0.000E+00  1.21582E+02  '
               '6.316E-01  2.568E+00  4.397E-04  4.922E-04  5.233E-06\n',
               '-   1    4   65     1    65    7.1782E-01  4.9722E-04   '
               '7.1733E-01  0.000E+00  0.000E+00  0.000E+00  1.21281E+02  '
               '6.314E-01  2.568E+00  4.397E-04  4.916E-04  5.623E-06\n',
               '-   1    4   66     1    66    7.1733E-01  4.9705E-04   '
               '7.1683E-01  0.000E+00  0.000E+00  0.000E+00  1.20981E+02  '
               '6.312E-01  2.568E+00  4.396E-04  4.911E-04  5.996E-06\n',
               '-   1    4   67     1    67    7.1683E-01  4.9688E-04   '
               '7.1633E-01  0.000E+00  0.000E+00  0.000E+00  1.20681E+02  '
               '6.310E-01  2.567E+00  4.395E-04  4.905E-04  6.349E-06\n',
               '-   1    4   68     1    68    7.1633E-01  4.9672E-04   '
               '7.1584E-01  0.000E+00  0.000E+00  0.000E+00  1.20381E+02  '
               '6.308E-01  2.567E+00  4.395E-04  4.900E-04  6.681E-06\n',
               '-   1    4   69     1    69    7.1584E-01  4.9655E-04   '
               '7.1534E-01  0.000E+00  0.000E+00  0.000E+00  1.20081E+02  '
               '6.306E-01  2.567E+00  4.394E-04  4.896E-04  6.989E-06\n',
               '-   1    4   70     1    70    7.1534E-01  4.9638E-04   '
               '7.1484E-01  0.000E+00  0.000E+00  0.000E+00  1.19780E+02  '
               '6.304E-01  2.567E+00  4.393E-04  4.891E-04  7.269E-06\n',
               '-   1    4   71     1    71    7.1484E-01  4.9622E-04   '
               '7.1435E-01  0.000E+00  0.000E+00  0.000E+00  1.19480E+02  '
               '6.302E-01  2.566E+00  4.393E-04  4.887E-04  7.519E-06\n',
               '-   1    4   72     1    72    7.1435E-01  4.9605E-04   '
               '7.1385E-01  0.000E+00  0.000E+00  0.000E+00  1.19180E+02  '
               '6.300E-01  2.566E+00  4.392E-04  4.883E-04  7.734E-06\n',
               '-   1    4   73     1    73    7.1385E-01  4.9588E-04   '
               '7.1336E-01  0.000E+00  0.000E+00  0.000E+00  1.18880E+02  '
               '6.298E-01  2.566E+00  4.391E-04  4.880E-04  7.915E-06\n',
               '-   1    4   74     1    74    7.1336E-01  4.9572E-04   '
               '7.1286E-01  0.000E+00  0.000E+00  0.000E+00  1.18580E+02  '
               '6.296E-01  2.566E+00  4.391E-04  4.904E-04  5.351E-06\n',
               '-   1    4   75     1    75    7.1286E-01  4.9555E-04   '
               '7.1236E-01  0.000E+00  0.000E+00  0.000E+00  1.18279E+02  '
               '6.294E-01  2.566E+00  4.390E-04  4.940E-04  1.569E-06\n',
               '-   1    4   76     1    76    7.1236E-01  4.9538E-04   '
               '7.1187E-01  0.000E+00  0.000E+00  0.000E+00  1.17979E+02  '
               '6.292E-01  2.565E+00  4.389E-04  4.938E-04  1.627E-06\n',
               '-   1    4   77     1    77    7.1187E-01  4.9522E-04   '
               '7.1137E-01  0.000E+00  0.000E+00  0.000E+00  1.17679E+02  '
               '6.290E-01  2.565E+00  4.389E-04  4.936E-04  1.631E-06\n',
               '-   1    4   78     1    78    7.1137E-01  4.9505E-04   '
               '7.1088E-01  0.000E+00  0.000E+00  0.000E+00  1.17379E+02  '
               '6.288E-01  2.565E+00  4.388E-04  4.935E-04  1.575E-06\n',
               '-   1    4   79     1    79    7.1088E-01  4.9488E-04   '
               '7.1038E-01  0.000E+00  0.000E+00  0.000E+00  1.17079E+02  '
               '6.286E-01  2.565E+00  4.387E-04  4.934E-04  1.458E-06\n',
               '-   1    4   80     1    80    7.1038E-01  4.9472E-04   '
               '7.0989E-01  0.000E+00  0.000E+00  0.000E+00  1.16778E+02  '
               '6.283E-01  2.564E+00  4.387E-04  4.990E-04 -4.241E-06\n',
               '-   1    4   81     1    81    7.0989E-01  4.9455E-04   '
               '7.0939E-01  0.000E+00  0.000E+00  0.000E+00  1.16478E+02  '
               '6.281E-01  2.564E+00  4.386E-04  4.999E-04 -5.353E-06\n',
               '-   1    4   82     1    82    7.0939E-01  4.9438E-04   '
               '7.0890E-01  0.000E+00  0.000E+00  0.000E+00  1.16178E+02  '
               '6.279E-01  2.564E+00  4.385E-04  5.001E-04 -5.707E-06\n',
               '-   1    4   83     1    83    7.0890E-01  4.9422E-04   '
               '7.0841E-01  0.000E+00  0.000E+00  0.000E+00  1.15878E+02  '
               '6.277E-01  2.564E+00  4.385E-04  5.004E-04 -6.148E-06\n',
               '-   1    4   84     1    84    7.0841E-01  4.9405E-04   '
               '7.0791E-01  0.000E+00  0.000E+00  0.000E+00  1.15578E+02  '
               '6.275E-01  2.563E+00  4.384E-04  5.007E-04 -6.681E-06\n',
               '-   1    4   85     1    85    7.0791E-01  4.9389E-04   '
               '7.0742E-01  0.000E+00  0.000E+00  0.000E+00  1.15277E+02  '
               '6.273E-01  2.563E+00  4.383E-04  5.012E-04 -7.312E-06\n',
               '-   1    4   86     1    86    7.0742E-01  4.9372E-04   '
               '7.0692E-01  0.000E+00  0.000E+00  0.000E+00  1.14977E+02  '
               '6.271E-01  2.563E+00  4.383E-04  5.018E-04 -8.045E-06\n',
               '-   1    4   87     1    87    7.0692E-01  4.9355E-04   '
               '7.0643E-01  0.000E+00  0.000E+00  0.000E+00  1.14677E+02  '
               '6.269E-01  2.563E+00  4.382E-04  5.024E-04 -8.885E-06\n',
               '-   1    4   88     1    88    7.0643E-01  4.9339E-04   '
               '7.0594E-01  0.000E+00  0.000E+00  0.000E+00  1.14377E+02  '
               '6.267E-01  2.562E+00  4.381E-04  5.032E-04 -9.834E-06\n',
               '-   1    4   89     1    89    7.0594E-01  4.9322E-04   '
               '7.0544E-01  0.000E+00  0.000E+00  0.000E+00  1.14076E+02  '
               '6.265E-01  2.562E+00  4.381E-04  5.041E-04 -1.090E-05\n',
               '-   1    4   90     1    90    7.0544E-01  4.9305E-04   '
               '7.0495E-01  0.000E+00  0.000E+00  0.000E+00  1.13776E+02  '
               '6.263E-01  2.562E+00  4.380E-04  5.051E-04 -1.208E-05\n',
               '-   1    4   91     1    91    7.0495E-01  4.9289E-04   '
               '7.0446E-01  0.000E+00  0.000E+00  0.000E+00  1.13476E+02  '
               '6.261E-01  2.562E+00  4.379E-04  5.063E-04 -1.338E-05\n',
               '-   1    4   92     1    92    7.0446E-01  4.9272E-04   '
               '7.0397E-01  0.000E+00  0.000E+00  0.000E+00  1.13176E+02  '
               '6.259E-01  2.561E+00  4.379E-04  5.075E-04 -1.479E-05\n',
               '-   1    4   93     1    93    7.0397E-01  4.9256E-04   '
               '7.0347E-01  0.000E+00  0.000E+00  0.000E+00  1.12876E+02  '
               '6.257E-01  2.561E+00  4.378E-04  5.089E-04 -1.633E-05\n',
               '-   1    4   94     1    94    7.0347E-01  4.9239E-04   '
               '7.0298E-01  0.000E+00  0.000E+00  0.000E+00  1.12575E+02  '
               '6.255E-01  2.561E+00  4.377E-04  5.104E-04 -1.798E-05\n',
               '-   1    4   95     1    95    7.0298E-01  4.9222E-04   '
               '7.0249E-01  0.000E+00  0.000E+00  0.000E+00  1.12275E+02  '
               '6.253E-01  2.561E+00  4.376E-04  5.156E-04 -2.337E-05\n',
               '-   1    4   96     1    96    7.0249E-01  4.9206E-04   '
               '7.0200E-01  0.000E+00  0.000E+00  0.000E+00  1.11975E+02  '
               '6.250E-01  2.560E+00  4.376E-04  5.252E-04 -3.319E-05\n',
               '-   1    4   97     1    97    7.0200E-01  4.9189E-04   '
               '7.0150E-01  0.000E+00  0.000E+00  0.000E+00  1.11675E+02  '
               '6.248E-01  2.560E+00  4.375E-04  5.271E-04 -3.521E-05\n',
               '-   1    4   98     1    98    7.0150E-01  4.9173E-04   '
               '7.0101E-01  0.000E+00  0.000E+00  0.000E+00  1.11375E+02  '
               '6.246E-01  2.560E+00  4.374E-04  5.418E-04 -5.012E-05\n',
               '-   1    4   99     1    99    7.0101E-01  4.9156E-04   '
               '7.0052E-01  0.000E+00  0.000E+00  0.000E+00  1.11074E+02  '
               '6.244E-01  2.560E+00  4.374E-04  5.543E-04 -6.269E-05\n',
               '-   1    4  100     1   100    7.0052E-01  4.9140E-04   '
               '7.0003E-01  0.000E+00  0.000E+00  0.000E+00  1.10774E+02  '
               '6.242E-01  2.559E+00  4.373E-04  5.563E-04 -6.486E-05\n',
               '-\n',
               '-\n',
               '-\n',
               '-1\n',
               '-  VOLUMETRIC BUDGET FOR UNSATURATED ZONE BENEATH STREAMS AT '
               'END OF TIME STEP    30 STRESS PERIOD  27\n',
               '-  '
               '------------------------------------------------------------------------------------------------\n',
               '-\n',
               '-    CUMULATIVE VOLUMES             L**3    RATES FOR THIS '
               'TIME STEP         L**3/T\n',
               '-    ------------------                     '
               '------------------------\n',
               '-\n',
               '-\n',
               '-          STREAM LOSS =     27550328.0000            STREAM '
               'LOSS =        4.9966E-02\n',
               '-    CHANGE IN STORAGE =       313893.8750      CHANGE IN '
               'STORAGE =       -1.0705E-03\n',
               '-       RECHARGE TO GW =     27240348.0000         RECHARGE TO '
               'GW =        5.1036E-02\n',
               '-\n',
               '-             TOTAL IN =     27550328.0000               TOTAL '
               'IN =        5.1036E-02\n',
               '-\n',
               '-            TOTAL OUT =     27554242.0000              TOTAL '
               'OUT =        5.1036E-02\n',
               '-\n',
               '-             IN - OUT =        -3914.0000               IN - '
               'OUT =        1.1176E-08\n',
               '-\n',
               '-  PERCENT DISCREPANCY =           -0.00      PERCENT '
               'DISCREPANCY =             0.00\n',
               '-\n',
               '-\n',
               '-\n',
               '-1\n',
               '-  VOLUMETRIC BUDGET FOR ENTIRE MODEL AT END OF TIME STEP   '
               '30, STRESS PERIOD  27\n',
               '-  '
               '------------------------------------------------------------------------------\n',
               '-\n',
               '-     CUMULATIVE VOLUMES      L**3       RATES FOR THIS TIME '
               'STEP      L**3/T\n',
               '-     ------------------                 '
               '------------------------\n',
               '-\n',
               '-           IN:                                      IN:\n',
               '-           ---                                      ---\n',
               '-             STORAGE =    12801312.0000               STORAGE '
               '=           0.1766\n',
               '-       CONSTANT HEAD =           0.0000         CONSTANT HEAD '
               '=           0.0000\n',
               '-     HEAD DEP BOUNDS =           0.0000       HEAD DEP BOUNDS '
               '=           0.0000\n',
               '-      STREAM LEAKAGE =    27240342.0000        STREAM LEAKAGE '
               '=       5.1036E-02\n',
               '-\n',
               '-            TOTAL IN =    40041656.0000              TOTAL IN '
               '=           0.2277\n',
               '-\n',
               '-          OUT:                                     OUT:\n',
               '-          ----                                     ----\n',
               '-             STORAGE =    15666716.0000               STORAGE '
               '=           0.0000\n',
               '-       CONSTANT HEAD =           0.0000         CONSTANT HEAD '
               '=           0.0000\n',
               '-     HEAD DEP BOUNDS =    24374846.0000       HEAD DEP BOUNDS '
               '=           0.2276\n',
               '-      STREAM LEAKAGE =           0.0000        STREAM LEAKAGE '
               '=           0.0000\n',
               '-\n',
               '-           TOTAL OUT =    40041560.0000             TOTAL OUT '
               '=           0.2276\n',
               '-\n',
               '-            IN - OUT =          96.0000              IN - OUT '
               '=       6.7398E-05\n',
               '-\n',
               '- PERCENT DISCREPANCY =           0.00     PERCENT DISCREPANCY '
               '=           0.03\n',
               '-\n',
               '-\n',
               '-\n',
               '-\n',
               '-\n',
               '-\n',
               '-         TIME SUMMARY AT END OF TIME STEP   30 IN STRESS '
               'PERIOD   27\n',
               '-                    SECONDS     MINUTES      HOURS       '
               'DAYS        YEARS\n',
               '-                    '
               '-----------------------------------------------------------\n',
               '-   TIME STEP LENGTH 2.49961E+05  4166.0      69.434      '
               '2.8931     7.92080E-03\n',
               '- STRESS PERIOD TIME 2.59200E+06  43200.      720.00      '
               '30.000     8.21355E-02\n',
               '-         TOTAL TIME 6.99840E+07 1.16640E+06  19440.      '
               '810.00      2.2177    \n',
               '-1\n',
               '-1\n',
               '-                            STRESS PERIOD NO.   28, LENGTH '
               '=   2592000.    \n',
               '-                            '
               '-----------------------------------------------\n',
               '-\n',
               '-                              NUMBER OF TIME STEPS =    30\n',
               '-\n',
               '-                               MULTIPLIER FOR DELT =     '
               '1.100\n',
               '-\n',
               '-                            INITIAL TIME STEP SIZE =   '
               '15757.40    \n',
               '-\n',
               '- REUSING NON-PARAMETER GHB CELLS FROM LAST STRESS PERIOD\n',
               '-\n',
               '-      7 GHB CELLS\n',
               '- \n',
               '- SOLVING FOR HEAD \n',
               '-\n',
               '- NO OUTPUT CONTROL FOR STRESS PERIOD   28   TIME STEP    1\n',
               '- \n',
               '- SOLVING FOR HEAD \n',
               '-\n',
               '- NO OUTPUT CONTROL FOR STRESS PERIOD   28   TIME STEP    2\n',
               '- \n',
               '- SOLVING FOR HEAD \n',
               '-\n',
               '- NO OUTPUT CONTROL FOR STRESS PERIOD   28   TIME STEP    3\n',
               '- \n',
               '- SOLVING FOR HEAD \n',
               '-\n',
               '- NO OUTPUT CONTROL FOR STRESS PERIOD   28   TIME STEP    4\n',
               '- \n',
               '- SOLVING FOR HEAD \n',
               '-\n',
               '- NO OUTPUT CONTROL FOR STRESS PERIOD   28   TIME STEP    5\n',
               '- \n',
               '- SOLVING FOR HEAD \n',
               '-\n',
               '- NO OUTPUT CONTROL FOR STRESS PERIOD   28   TIME STEP    6\n',
               '- \n',
               '- SOLVING FOR HEAD \n',
               '-\n',
               '- NO OUTPUT CONTROL FOR STRESS PERIOD   28   TIME STEP    7\n',
               '- \n',
               '- SOLVING FOR HEAD \n',
               '-\n',
               '- NO OUTPUT CONTROL FOR STRESS PERIOD   28   TIME STEP    8\n',
               '- \n',
               '- SOLVING FOR HEAD \n',
               '-\n',
               '- NO OUTPUT CONTROL FOR STRESS PERIOD   28   TIME STEP    9\n',
               '- \n',
               '- SOLVING FOR HEAD \n',
               '-\n',
               '- NO OUTPUT CONTROL FOR STRESS PERIOD   28   TIME STEP   10\n',
               '- \n',
               '- SOLVING FOR HEAD \n',
               '-\n',
               '- NO OUTPUT CONTROL FOR STRESS PERIOD   28   TIME STEP   11\n',
               '- \n',
               '- SOLVING FOR HEAD \n',
               '-\n',
               '- NO OUTPUT CONTROL FOR STRESS PERIOD   28   TIME STEP   12\n',
               '- \n',
               '- SOLVING FOR HEAD \n',
               '-\n',
               '- NO OUTPUT CONTROL FOR STRESS PERIOD   28   TIME STEP   13\n',
               '- \n',
               '- SOLVING FOR HEAD \n',
               '-\n',
               '- NO OUTPUT CONTROL FOR STRESS PERIOD   28   TIME STEP   14\n',
               '- \n',
               '- SOLVING FOR HEAD \n',
               '-\n',
               '- NO OUTPUT CONTROL FOR STRESS PERIOD   28   TIME STEP   15\n',
               '- \n',
               '- SOLVING FOR HEAD \n',
               '-\n',
               '- NO OUTPUT CONTROL FOR STRESS PERIOD   28   TIME STEP   16\n',
               '- \n',
               '- SOLVING FOR HEAD \n',
               '-\n',
               '- NO OUTPUT CONTROL FOR STRESS PERIOD   28   TIME STEP   17\n',
               '- \n',
               '- SOLVING FOR HEAD \n',
               '-\n',
               '- NO OUTPUT CONTROL FOR STRESS PERIOD   28   TIME STEP   18\n',
               '- \n',
               '- SOLVING FOR HEAD \n',
               '-\n',
               '- NO OUTPUT CONTROL FOR STRESS PERIOD   28   TIME STEP   19\n',
               '- \n',
               '- SOLVING FOR HEAD \n',
               '-\n',
               '- NO OUTPUT CONTROL FOR STRESS PERIOD   28   TIME STEP   20\n',
               '- \n',
               '- SOLVING FOR HEAD \n',
               '-\n',
               '- NO OUTPUT CONTROL FOR STRESS PERIOD   28   TIME STEP   21\n',
               '- \n',
               '- SOLVING FOR HEAD \n',
               '-\n',
               '- NO OUTPUT CONTROL FOR STRESS PERIOD   28   TIME STEP   22\n',
               '- \n',
               '- SOLVING FOR HEAD \n',
               '-\n',
               '- NO OUTPUT CONTROL FOR STRESS PERIOD   28   TIME STEP   23\n',
               '- \n',
               '- SOLVING FOR HEAD \n',
               '-\n',
               '- NO OUTPUT CONTROL FOR STRESS PERIOD   28   TIME STEP   24\n',
               '- \n',
               '- SOLVING FOR HEAD \n',
               '-\n',
               '- NO OUTPUT CONTROL FOR STRESS PERIOD   28   TIME STEP   25\n',
               '- \n',
               '- SOLVING FOR HEAD \n',
               '-\n',
               '- NO OUTPUT CONTROL FOR STRESS PERIOD   28   TIME STEP   26\n',
               '- \n',
               '- SOLVING FOR HEAD \n',
               '-\n',
               '- NO OUTPUT CONTROL FOR STRESS PERIOD   28   TIME STEP   27\n',
               '- \n',
               '- SOLVING FOR HEAD \n',
               '-\n',
               '- NO OUTPUT CONTROL FOR STRESS PERIOD   28   TIME STEP   28\n',
               '- \n',
               '- SOLVING FOR HEAD \n',
               '-\n',
               '- NO OUTPUT CONTROL FOR STRESS PERIOD   28   TIME STEP   29\n',
               '- \n',
               '- SOLVING FOR HEAD \n',
               '-\n',
               '- NO OUTPUT CONTROL FOR STRESS PERIOD   28   TIME STEP   30\n',
               '-\n',
               '-\n',
               '-\n',
               '- STREAM LISTING     PERIOD     28   STEP       30\n',
               '-\n',
               '- LAYER ROW COL. STREAM  RCH.   FLOW INTO    STREAM     FLOW '
               'OUT OF   OVRLND.    DIRECT     STREAM      STREAM      '
               'STREAM     STREAM  STREAMBED   FLOW TO   CHNG. UNSAT. \n',
               '-                SEG.NO.  NO.   STRM. RCH.    LOSS       STRM. '
               'RCH.   RUNOFF     PRECIP       ET         HEAD        '
               'DEPTH      WIDTH  CONDCTNC.   WAT. TAB.\n',
               '-\n',
               '-   1    4    1     1     1    1.7300E+00  8.1261E-04   '
               '1.7292E+00  0.000E+00  0.000E+00  0.000E+00  1.40825E+02  '
               '9.745E-01  2.978E+00  5.516E-04  8.430E-04 -3.035E-05\n',
               '-   1    4    2     1     2    1.7292E+00  8.1237E-04   '
               '1.7284E+00  0.000E+00  0.000E+00  0.000E+00  1.40524E+02  '
               '9.743E-01  2.978E+00  5.516E-04  8.388E-04 -2.642E-05\n',
               '-   1    4    3     1     3    1.7284E+00  8.1213E-04   '
               '1.7276E+00  0.000E+00  0.000E+00  0.000E+00  1.40224E+02  '
               '9.741E-01  2.978E+00  5.515E-04  8.385E-04 -2.636E-05\n',
               '-   1    4    4     1     4    1.7276E+00  8.1189E-04   '
               '1.7267E+00  0.000E+00  0.000E+00  0.000E+00  1.39924E+02  '
               '9.738E-01  2.978E+00  5.514E-04  8.382E-04 -2.627E-05\n',
               '-   1    4    5     1     5    1.7267E+00  8.1165E-04   '
               '1.7259E+00  0.000E+00  0.000E+00  0.000E+00  1.39624E+02  '
               '9.736E-01  2.977E+00  5.513E-04  8.348E-04 -2.319E-05\n',
               '-   1    4    6     1     6    1.7259E+00  8.1141E-04   '
               '1.7251E+00  0.000E+00  0.000E+00  0.000E+00  1.39323E+02  '
               '9.734E-01  2.977E+00  5.513E-04  8.284E-04 -1.695E-05\n',
               '-   1    4    7     1     7    1.7251E+00  8.1117E-04   '
               '1.7243E+00  0.000E+00  0.000E+00  0.000E+00  1.39023E+02  '
               '9.731E-01  2.977E+00  5.512E-04  8.280E-04 -1.686E-05\n',
               '-   1    4    8     1     8    1.7243E+00  8.1092E-04   '
               '1.7235E+00  0.000E+00  0.000E+00  0.000E+00  1.38723E+02  '
               '9.729E-01  2.977E+00  5.511E-04  8.277E-04 -1.675E-05\n',
               '-   1    4    9     1     9    1.7235E+00  8.1068E-04   '
               '1.7227E+00  0.000E+00  0.000E+00  0.000E+00  1.38423E+02  '
               '9.727E-01  2.976E+00  5.510E-04  8.273E-04 -1.663E-05\n',
               '-   1    4   10     1    10    1.7227E+00  8.1044E-04   '
               '1.7219E+00  0.000E+00  0.000E+00  0.000E+00  1.38122E+02  '
               '9.724E-01  2.976E+00  5.510E-04  8.269E-04 -1.649E-05\n',
               '-   1    4   11     1    11    1.7219E+00  8.1020E-04   '
               '1.7211E+00  0.000E+00  0.000E+00  0.000E+00  1.37822E+02  '
               '9.722E-01  2.976E+00  5.509E-04  8.265E-04 -1.634E-05\n',
               '-   1    4   12     1    12    1.7211E+00  8.0996E-04   '
               '1.7203E+00  0.000E+00  0.000E+00  0.000E+00  1.37522E+02  '
               '9.720E-01  2.975E+00  5.508E-04  8.261E-04 -1.618E-05\n',
               '-   1    4   13     1    13    1.7203E+00  8.0972E-04   '
               '1.7194E+00  0.000E+00  0.000E+00  0.000E+00  1.37222E+02  '
               '9.717E-01  2.975E+00  5.507E-04  8.257E-04 -1.600E-05\n',
               '-   1    4   14     1    14    1.7194E+00  8.0948E-04   '
               '1.7186E+00  0.000E+00  0.000E+00  0.000E+00  1.36922E+02  '
               '9.715E-01  2.975E+00  5.506E-04  8.253E-04 -1.582E-05\n',
               '-   1    4   15     1    15    1.7186E+00  8.0924E-04   '
               '1.7178E+00  0.000E+00  0.000E+00  0.000E+00  1.36621E+02  '
               '9.713E-01  2.975E+00  5.506E-04  8.249E-04 -1.562E-05\n',
               '-   1    4   16     1    16    1.7178E+00  8.0900E-04   '
               '1.7170E+00  0.000E+00  0.000E+00  0.000E+00  1.36321E+02  '
               '9.710E-01  2.974E+00  5.505E-04  8.244E-04 -1.541E-05\n',
               '-   1    4   17     1    17    1.7170E+00  8.0876E-04   '
               '1.7162E+00  0.000E+00  0.000E+00  0.000E+00  1.36021E+02  '
               '9.708E-01  2.974E+00  5.504E-04  8.239E-04 -1.518E-05\n',
               '-   1    4   18     1    18    1.7162E+00  8.0852E-04   '
               '1.7154E+00  0.000E+00  0.000E+00  0.000E+00  1.35721E+02  '
               '9.706E-01  2.974E+00  5.503E-04  8.235E-04 -1.494E-05\n',
               '-   1    4   19     1    19    1.7154E+00  8.0828E-04   '
               '1.7146E+00  0.000E+00  0.000E+00  0.000E+00  1.35420E+02  '
               '9.703E-01  2.973E+00  5.503E-04  8.230E-04 -1.469E-05\n',
               '-   1    4   20     1    20    1.7146E+00  8.0804E-04   '
               '1.7138E+00  0.000E+00  0.000E+00  0.000E+00  1.35120E+02  '
               '9.701E-01  2.973E+00  5.502E-04  8.225E-04 -1.443E-05\n',
               '-   1    4   21     1    21    1.7138E+00  8.0780E-04   '
               '1.7130E+00  0.000E+00  0.000E+00  0.000E+00  1.34820E+02  '
               '9.699E-01  2.973E+00  5.501E-04  8.220E-04 -1.416E-05\n',
               '-   1    4   22     1    22    1.7130E+00  8.0756E-04   '
               '1.7122E+00  0.000E+00  0.000E+00  0.000E+00  1.34520E+02  '
               '9.696E-01  2.973E+00  5.500E-04  8.214E-04 -1.387E-05\n',
               '-   1    4   23     1    23    1.7122E+00  8.0732E-04   '
               '1.7114E+00  0.000E+00  0.000E+00  0.000E+00  1.34219E+02  '
               '9.694E-01  2.972E+00  5.500E-04  8.209E-04 -1.358E-05\n',
               '-   1    4   24     1    24    1.7114E+00  8.0708E-04   '
               '1.7106E+00  0.000E+00  0.000E+00  0.000E+00  1.33919E+02  '
               '9.692E-01  2.972E+00  5.499E-04  8.203E-04 -1.327E-05\n',
               '-   1    4   25     1    25    1.7106E+00  8.0684E-04   '
               '1.7097E+00  0.000E+00  0.000E+00  0.000E+00  1.33619E+02  '
               '9.689E-01  2.972E+00  5.498E-04  8.198E-04 -1.295E-05\n',
               '-   1    4   26     1    26    1.7097E+00  8.0660E-04   '
               '1.7089E+00  0.000E+00  0.000E+00  0.000E+00  1.33319E+02  '
               '9.687E-01  2.971E+00  5.497E-04  8.192E-04 -1.262E-05\n',
               '-   1    4   27     1    27    1.7089E+00  8.0636E-04   '
               '1.7081E+00  0.000E+00  0.000E+00  0.000E+00  1.33018E+02  '
               '9.685E-01  2.971E+00  5.497E-04  8.186E-04 -1.228E-05\n',
               '-   1    4   28     1    28    1.7081E+00  8.0612E-04   '
               '1.7073E+00  0.000E+00  0.000E+00  0.000E+00  1.32718E+02  '
               '9.682E-01  2.971E+00  5.496E-04  8.180E-04 -1.193E-05\n',
               '-   1    4   29     1    29    1.7073E+00  8.0588E-04   '
               '1.7065E+00  0.000E+00  0.000E+00  0.000E+00  1.32418E+02  '
               '9.680E-01  2.971E+00  5.495E-04  8.174E-04 -1.156E-05\n',
               '-   1    4   30     1    30    1.7065E+00  8.0564E-04   '
               '1.7057E+00  0.000E+00  0.000E+00  0.000E+00  1.32118E+02  '
               '9.678E-01  2.970E+00  5.494E-04  8.168E-04 -1.119E-05\n',
               '-   1    4   31     1    31    1.7057E+00  8.0540E-04   '
               '1.7049E+00  0.000E+00  0.000E+00  0.000E+00  1.31818E+02  '
               '9.675E-01  2.970E+00  5.494E-04  8.162E-04 -1.081E-05\n',
               '-   1    4   32     1    32    1.7049E+00  8.0516E-04   '
               '1.7041E+00  0.000E+00  0.000E+00  0.000E+00  1.31517E+02  '
               '9.673E-01  2.970E+00  5.493E-04  8.156E-04 -1.042E-05\n',
               '-   1    4   33     1    33    1.7041E+00  8.0492E-04   '
               '1.7033E+00  0.000E+00  0.000E+00  0.000E+00  1.31217E+02  '
               '9.671E-01  2.970E+00  5.492E-04  8.149E-04 -1.001E-05\n',
               '-   1    4   34     1    34    1.7033E+00  8.0468E-04   '
               '1.7025E+00  0.000E+00  0.000E+00  0.000E+00  1.30917E+02  '
               '9.668E-01  2.969E+00  5.491E-04  8.143E-04 -9.607E-06\n',
               '-   1    4   35     1    35    1.7025E+00  8.0444E-04   '
               '1.7017E+00  0.000E+00  0.000E+00  0.000E+00  1.30617E+02  '
               '9.666E-01  2.969E+00  5.490E-04  8.136E-04 -9.189E-06\n',
               '-   1    4   36     1    36    1.7017E+00  8.0420E-04   '
               '1.7009E+00  0.000E+00  0.000E+00  0.000E+00  1.30316E+02  '
               '9.664E-01  2.969E+00  5.490E-04  8.130E-04 -8.763E-06\n',
               '-   1    4   37     1    37    1.7009E+00  8.0397E-04   '
               '1.7001E+00  0.000E+00  0.000E+00  0.000E+00  1.30016E+02  '
               '9.662E-01  2.968E+00  5.489E-04  8.123E-04 -8.328E-06\n',
               '-   1    4   38     1    38    1.7001E+00  8.0373E-04   '
               '1.6993E+00  0.000E+00  0.000E+00  0.000E+00  1.29716E+02  '
               '9.659E-01  2.968E+00  5.488E-04  8.116E-04 -7.887E-06\n',
               '-   1    4   39     1    39    1.6993E+00  8.0349E-04   '
               '1.6985E+00  0.000E+00  0.000E+00  0.000E+00  1.29416E+02  '
               '9.657E-01  2.968E+00  5.487E-04  8.109E-04 -7.438E-06\n',
               '-   1    4   40     1    40    1.6985E+00  8.0325E-04   '
               '1.6977E+00  0.000E+00  0.000E+00  0.000E+00  1.29115E+02  '
               '9.655E-01  2.968E+00  5.487E-04  8.102E-04 -6.982E-06\n',
               '-   1    4   41     1    41    1.6977E+00  8.0301E-04   '
               '1.6969E+00  0.000E+00  0.000E+00  0.000E+00  1.28815E+02  '
               '9.652E-01  2.967E+00  5.486E-04  8.095E-04 -6.521E-06\n',
               '-   1    4   42     1    42    1.6969E+00  8.0277E-04   '
               '1.6961E+00  0.000E+00  0.000E+00  0.000E+00  1.28515E+02  '
               '9.650E-01  2.967E+00  5.485E-04  8.088E-04 -6.055E-06\n',
               '-   1    4   43     1    43    1.6961E+00  8.0253E-04   '
               '1.6953E+00  0.000E+00  0.000E+00  0.000E+00  1.28215E+02  '
               '9.648E-01  2.967E+00  5.484E-04  8.081E-04 -5.583E-06\n',
               '-   1    4   44     1    44    1.6953E+00  8.0229E-04   '
               '1.6945E+00  0.000E+00  0.000E+00  0.000E+00  1.27915E+02  '
               '9.645E-01  2.966E+00  5.484E-04  8.074E-04 -5.109E-06\n',
               '-   1    4   45     1    45    1.6945E+00  8.0205E-04   '
               '1.6937E+00  0.000E+00  0.000E+00  0.000E+00  1.27614E+02  '
               '9.643E-01  2.966E+00  5.483E-04  8.067E-04 -4.630E-06\n',
               '-   1    4   46     1    46    1.6937E+00  8.0182E-04   '
               '1.6929E+00  0.000E+00  0.000E+00  0.000E+00  1.27314E+02  '
               '9.641E-01  2.966E+00  5.482E-04  8.060E-04 -4.148E-06\n',
               '-   1    4   47     1    47    1.6929E+00  8.0158E-04   '
               '1.6921E+00  0.000E+00  0.000E+00  0.000E+00  1.27014E+02  '
               '9.638E-01  2.966E+00  5.481E-04  8.052E-04 -3.662E-06\n',
               '-   1    4   48     1    48    1.6921E+00  8.0134E-04   '
               '1.6913E+00  0.000E+00  0.000E+00  0.000E+00  1.26714E+02  '
               '9.636E-01  2.965E+00  5.481E-04  8.045E-04 -3.176E-06\n',
               '-   1    4   49     1    49    1.6913E+00  8.0110E-04   '
               '1.6905E+00  0.000E+00  0.000E+00  0.000E+00  1.26413E+02  '
               '9.634E-01  2.965E+00  5.480E-04  8.038E-04 -2.687E-06\n',
               '-   1    4   50     1    50    1.6905E+00  8.0086E-04   '
               '1.6897E+00  0.000E+00  0.000E+00  0.000E+00  1.26113E+02  '
               '9.631E-01  2.965E+00  5.479E-04  8.031E-04 -2.197E-06\n',
               '-   1    4   51     1    51    1.6897E+00  8.0062E-04   '
               '1.6889E+00  0.000E+00  0.000E+00  0.000E+00  1.25813E+02  '
               '9.629E-01  2.965E+00  5.478E-04  8.023E-04 -1.707E-06\n',
               '-   1    4   52     1    52    1.6889E+00  8.0039E-04   '
               '1.6881E+00  0.000E+00  0.000E+00  0.000E+00  1.25513E+02  '
               '9.627E-01  2.964E+00  5.478E-04  8.016E-04 -1.219E-06\n',
               '-   1    4   53     1    53    1.6881E+00  8.0015E-04   '
               '1.6873E+00  0.000E+00  0.000E+00  0.000E+00  1.25212E+02  '
               '9.624E-01  2.964E+00  5.477E-04  8.009E-04 -7.337E-07\n',
               '-   1    4   54     1    54    1.6873E+00  7.9991E-04   '
               '1.6865E+00  0.000E+00  0.000E+00  0.000E+00  1.24912E+02  '
               '9.622E-01  2.964E+00  5.476E-04  8.002E-04 -2.510E-07\n',
               '-   1    4   55     1    55    1.6865E+00  7.9967E-04   '
               '1.6857E+00  0.000E+00  0.000E+00  0.000E+00  1.24612E+02  '
               '9.620E-01  2.963E+00  5.475E-04  7.994E-04  2.288E-07\n',
               '-   1    4   56     1    56    1.6857E+00  7.9943E-04   '
               '1.6849E+00  0.000E+00  0.000E+00  0.000E+00  1.24312E+02  '
               '9.617E-01  2.963E+00  5.475E-04  7.987E-04  7.026E-07\n',
               '-   1    4   57     1    57    1.6849E+00  7.9919E-04   '
               '1.6841E+00  0.000E+00  0.000E+00  0.000E+00  1.24012E+02  '
               '9.615E-01  2.963E+00  5.474E-04  7.980E-04  1.171E-06\n',
               '-   1    4   58     1    58    1.6841E+00  7.9896E-04   '
               '1.6833E+00  0.000E+00  0.000E+00  0.000E+00  1.23711E+02  '
               '9.613E-01  2.963E+00  5.473E-04  7.973E-04  1.632E-06\n',
               '-   1    4   59     1    59    1.6833E+00  7.9872E-04   '
               '1.6825E+00  0.000E+00  0.000E+00  0.000E+00  1.23411E+02  '
               '9.610E-01  2.962E+00  5.472E-04  7.966E-04  2.084E-06\n',
               '-   1    4   60     1    60    1.6825E+00  7.9848E-04   '
               '1.6817E+00  0.000E+00  0.000E+00  0.000E+00  1.23111E+02  '
               '9.608E-01  2.962E+00  5.472E-04  7.960E-04  2.525E-06\n',
               '-   1    4   61     1    61    1.6817E+00  7.9824E-04   '
               '1.6809E+00  0.000E+00  0.000E+00  0.000E+00  1.22811E+02  '
               '9.606E-01  2.962E+00  5.471E-04  7.953E-04  2.954E-06\n',
               '-   1    4   62     1    62    1.6809E+00  7.9801E-04   '
               '1.6801E+00  0.000E+00  0.000E+00  0.000E+00  1.22510E+02  '
               '9.603E-01  2.961E+00  5.470E-04  7.946E-04  3.370E-06\n',
               '-   1    4   63     1    63    1.6801E+00  7.9777E-04   '
               '1.6793E+00  0.000E+00  0.000E+00  0.000E+00  1.22210E+02  '
               '9.601E-01  2.961E+00  5.469E-04  7.940E-04  3.771E-06\n',
               '-   1    4   64     1    64    1.6793E+00  7.9753E-04   '
               '1.6785E+00  0.000E+00  0.000E+00  0.000E+00  1.21910E+02  '
               '9.599E-01  2.961E+00  5.468E-04  7.934E-04  4.155E-06\n',
               '-   1    4   65     1    65    1.6785E+00  7.9729E-04   '
               '1.6777E+00  0.000E+00  0.000E+00  0.000E+00  1.21610E+02  '
               '9.596E-01  2.961E+00  5.468E-04  7.928E-04  4.518E-06\n',
               '-   1    4   66     1    66    1.6777E+00  7.9706E-04   '
               '1.6769E+00  0.000E+00  0.000E+00  0.000E+00  1.21309E+02  '
               '9.594E-01  2.960E+00  5.467E-04  7.922E-04  4.859E-06\n',
               '-   1    4   67     1    67    1.6769E+00  7.9682E-04   '
               '1.6761E+00  0.000E+00  0.000E+00  0.000E+00  1.21009E+02  '
               '9.592E-01  2.960E+00  5.466E-04  7.916E-04  5.175E-06\n',
               '-   1    4   68     1    68    1.6761E+00  7.9658E-04   '
               '1.6753E+00  0.000E+00  0.000E+00  0.000E+00  1.20709E+02  '
               '9.589E-01  2.960E+00  5.465E-04  7.911E-04  5.466E-06\n',
               '-   1    4   69     1    69    1.6753E+00  7.9634E-04   '
               '1.6745E+00  0.000E+00  0.000E+00  0.000E+00  1.20409E+02  '
               '9.587E-01  2.960E+00  5.465E-04  7.906E-04  5.728E-06\n',
               '-   1    4   70     1    70    1.6745E+00  7.9611E-04   '
               '1.6737E+00  0.000E+00  0.000E+00  0.000E+00  1.20108E+02  '
               '9.585E-01  2.959E+00  5.464E-04  7.901E-04  5.958E-06\n',
               '-   1    4   71     1    71    1.6737E+00  7.9587E-04   '
               '1.6729E+00  0.000E+00  0.000E+00  0.000E+00  1.19808E+02  '
               '9.583E-01  2.959E+00  5.463E-04  7.897E-04  6.152E-06\n',
               '-   1    4   72     1    72    1.6729E+00  7.9563E-04   '
               '1.6721E+00  0.000E+00  0.000E+00  0.000E+00  1.19508E+02  '
               '9.580E-01  2.959E+00  5.462E-04  7.893E-04  6.307E-06\n',
               '-   1    4   73     1    73    1.6721E+00  7.9539E-04   '
               '1.6713E+00  0.000E+00  0.000E+00  0.000E+00  1.19208E+02  '
               '9.578E-01  2.958E+00  5.462E-04  7.890E-04  6.420E-06\n',
               '-   1    4   74     1    74    1.6713E+00  7.9516E-04   '
               '1.6705E+00  0.000E+00  0.000E+00  0.000E+00  1.18908E+02  '
               '9.576E-01  2.958E+00  5.461E-04  7.887E-04  6.489E-06\n',
               '-   1    4   75     1    75    1.6705E+00  7.9492E-04   '
               '1.6697E+00  0.000E+00  0.000E+00  0.000E+00  1.18607E+02  '
               '9.573E-01  2.958E+00  5.460E-04  7.884E-04  6.508E-06\n',
               '-   1    4   76     1    76    1.6697E+00  7.9468E-04   '
               '1.6689E+00  0.000E+00  0.000E+00  0.000E+00  1.18307E+02  '
               '9.571E-01  2.958E+00  5.459E-04  7.882E-04  6.475E-06\n',
               '-   1    4   77     1    77    1.6689E+00  7.9445E-04   '
               '1.6681E+00  0.000E+00  0.000E+00  0.000E+00  1.18007E+02  '
               '9.569E-01  2.957E+00  5.459E-04  7.881E-04  6.386E-06\n',
               '-   1    4   78     1    78    1.6681E+00  7.9421E-04   '
               '1.6673E+00  0.000E+00  0.000E+00  0.000E+00  1.17707E+02  '
               '9.566E-01  2.957E+00  5.458E-04  7.880E-04  6.240E-06\n',
               '-   1    4   79     1    79    1.6673E+00  7.9397E-04   '
               '1.6665E+00  0.000E+00  0.000E+00  0.000E+00  1.17406E+02  '
               '9.564E-01  2.957E+00  5.457E-04  7.879E-04  6.039E-06\n',
               '-   1    4   80     1    80    1.6665E+00  7.9374E-04   '
               '1.6657E+00  0.000E+00  0.000E+00  0.000E+00  1.17106E+02  '
               '9.562E-01  2.956E+00  5.456E-04  7.947E-04 -9.209E-07\n',
               '-   1    4   81     1    81    1.6657E+00  7.9350E-04   '
               '1.6649E+00  0.000E+00  0.000E+00  0.000E+00  1.16806E+02  '
               '9.559E-01  2.956E+00  5.456E-04  7.948E-04 -1.276E-06\n',
               '-   1    4   82     1    82    1.6649E+00  7.9326E-04   '
               '1.6642E+00  0.000E+00  0.000E+00  0.000E+00  1.16506E+02  '
               '9.557E-01  2.956E+00  5.455E-04  7.950E-04 -1.707E-06\n',
               '-   1    4   83     1    83    1.6642E+00  7.9303E-04   '
               '1.6634E+00  0.000E+00  0.000E+00  0.000E+00  1.16205E+02  '
               '9.555E-01  2.956E+00  5.454E-04  7.952E-04 -2.218E-06\n',
               '-   1    4   84     1    84    1.6634E+00  7.9279E-04   '
               '1.6626E+00  0.000E+00  0.000E+00  0.000E+00  1.15905E+02  '
               '9.552E-01  2.955E+00  5.453E-04  7.956E-04 -2.814E-06\n',
               '-   1    4   85     1    85    1.6626E+00  7.9255E-04   '
               '1.6618E+00  0.000E+00  0.000E+00  0.000E+00  1.15605E+02  '
               '9.550E-01  2.955E+00  5.453E-04  7.960E-04 -3.493E-06\n',
               '-   1    4   86     1    86    1.6618E+00  7.9232E-04   '
               '1.6610E+00  0.000E+00  0.000E+00  0.000E+00  1.15305E+02  '
               '9.548E-01  2.955E+00  5.452E-04  8.031E-04 -1.081E-05\n',
               '-   1    4   87     1    87    1.6610E+00  7.9208E-04   '
               '1.6602E+00  0.000E+00  0.000E+00  0.000E+00  1.15005E+02  '
               '9.545E-01  2.955E+00  5.451E-04  8.038E-04 -1.171E-05\n',
               '-   1    4   88     1    88    1.6602E+00  7.9184E-04   '
               '1.6594E+00  0.000E+00  0.000E+00  0.000E+00  1.14704E+02  '
               '9.543E-01  2.954E+00  5.450E-04  8.045E-04 -1.270E-05\n',
               '-   1    4   89     1    89    1.6594E+00  7.9161E-04   '
               '1.6586E+00  0.000E+00  0.000E+00  0.000E+00  1.14404E+02  '
               '9.541E-01  2.954E+00  5.450E-04  8.054E-04 -1.378E-05\n',
               '-   1    4   90     1    90    1.6586E+00  7.9137E-04   '
               '1.6578E+00  0.000E+00  0.000E+00  0.000E+00  1.14104E+02  '
               '9.538E-01  2.954E+00  5.449E-04  8.063E-04 -1.496E-05\n',
               '-   1    4   91     1    91    1.6578E+00  7.9114E-04   '
               '1.6570E+00  0.000E+00  0.000E+00  0.000E+00  1.13804E+02  '
               '9.536E-01  2.953E+00  5.448E-04  8.074E-04 -1.624E-05\n',
               '-   1    4   92     1    92    1.6570E+00  7.9090E-04   '
               '1.6562E+00  0.000E+00  0.000E+00  0.000E+00  1.13503E+02  '
               '9.534E-01  2.953E+00  5.447E-04  8.085E-04 -1.760E-05\n',
               '-   1    4   93     1    93    1.6562E+00  7.9066E-04   '
               '1.6554E+00  0.000E+00  0.000E+00  0.000E+00  1.13203E+02  '
               '9.532E-01  2.953E+00  5.447E-04  8.097E-04 -1.904E-05\n',
               '-   1    4   94     1    94    1.6554E+00  7.9043E-04   '
               '1.6547E+00  0.000E+00  0.000E+00  0.000E+00  1.12903E+02  '
               '9.529E-01  2.953E+00  5.446E-04  8.110E-04 -2.055E-05\n',
               '-   1    4   95     1    95    1.6547E+00  7.9019E-04   '
               '1.6539E+00  0.000E+00  0.000E+00  0.000E+00  1.12603E+02  '
               '9.527E-01  2.952E+00  5.445E-04  8.123E-04 -2.210E-05\n',
               '-   1    4   96     1    96    1.6539E+00  7.8996E-04   '
               '1.6531E+00  0.000E+00  0.000E+00  0.000E+00  1.12302E+02  '
               '9.525E-01  2.952E+00  5.444E-04  8.136E-04 -2.369E-05\n',
               '-   1    4   97     1    97    1.6531E+00  7.8972E-04   '
               '1.6523E+00  0.000E+00  0.000E+00  0.000E+00  1.12002E+02  '
               '9.522E-01  2.952E+00  5.444E-04  8.150E-04 -2.526E-05\n',
               '-   1    4   98     1    98    1.6523E+00  7.8948E-04   '
               '1.6515E+00  0.000E+00  0.000E+00  0.000E+00  1.11702E+02  '
               '9.520E-01  2.951E+00  5.443E-04  8.163E-04 -2.681E-05\n',
               '-   1    4   99     1    99    1.6515E+00  7.8925E-04   '
               '1.6507E+00  0.000E+00  0.000E+00  0.000E+00  1.11402E+02  '
               '9.518E-01  2.951E+00  5.442E-04  8.176E-04 -2.833E-05\n',
               '-   1    4  100     1   100    1.6507E+00  7.8901E-04   '
               '1.6499E+00  0.000E+00  0.000E+00  0.000E+00  1.11102E+02  '
               '9.515E-01  2.951E+00  5.441E-04  8.306E-04 -4.156E-05\n',
               '-\n',
               '-\n',
               '-\n',
               '-1\n',
               '-  VOLUMETRIC BUDGET FOR UNSATURATED ZONE BENEATH STREAMS AT '
               'END OF TIME STEP    30 STRESS PERIOD  28\n',
               '-  '
               '------------------------------------------------------------------------------------------------\n',
               '-\n',
               '-    CUMULATIVE VOLUMES             L**3    RATES FOR THIS '
               'TIME STEP         L**3/T\n',
               '-    ------------------                     '
               '------------------------\n',
               '-\n',
               '-\n',
               '-          STREAM LOSS =     27757762.0000            STREAM '
               'LOSS =        8.0077E-02\n',
               '-    CHANGE IN STORAGE =       341793.1562      CHANGE IN '
               'STORAGE =       -8.4166E-04\n',
               '-       RECHARGE TO GW =     27419950.0000         RECHARGE TO '
               'GW =        8.0918E-02\n',
               '-\n',
               '-             TOTAL IN =     27757762.0000               TOTAL '
               'IN =        8.0918E-02\n',
               '-\n',
               '-            TOTAL OUT =     27761744.0000              TOTAL '
               'OUT =        8.0918E-02\n',
               '-\n',
               '-             IN - OUT =        -3982.0000               IN - '
               'OUT =       -3.7253E-08\n',
               '-\n',
               '-  PERCENT DISCREPANCY =           -0.00      PERCENT '
               'DISCREPANCY =            -0.00\n',
               '-\n',
               '-\n',
               '-\n',
               '-1\n',
               '-  VOLUMETRIC BUDGET FOR ENTIRE MODEL AT END OF TIME STEP   '
               '30, STRESS PERIOD  28\n',
               '-  '
               '------------------------------------------------------------------------------\n',
               '-\n',
               '-     CUMULATIVE VOLUMES      L**3       RATES FOR THIS TIME '
               'STEP      L**3/T\n',
               '-     ------------------                 '
               '------------------------\n',
               '-\n',
               '-           IN:                                      IN:\n',
               '-           ---                                      ---\n',
               '-             STORAGE =    13205063.0000               STORAGE '
               '=           0.1424\n',
               '-       CONSTANT HEAD =           0.0000         CONSTANT HEAD '
               '=           0.0000\n',
               '-     HEAD DEP BOUNDS =           0.0000       HEAD DEP BOUNDS '
               '=           0.0000\n',
               '-      STREAM LEAKAGE =    27420000.0000        STREAM LEAKAGE '
               '=       8.0918E-02\n',
               '-\n',
               '-            TOTAL IN =    40625064.0000              TOTAL IN '
               '=           0.2233\n',
               '-\n',
               '-          OUT:                                     OUT:\n',
               '-          ----                                     ----\n',
               '-             STORAGE =    15666817.0000               STORAGE '
               '=       1.1325E-06\n',
               '-       CONSTANT HEAD =           0.0000         CONSTANT HEAD '
               '=           0.0000\n',
               '-     HEAD DEP BOUNDS =    24958144.0000       HEAD DEP BOUNDS '
               '=           0.2232\n',
               '-      STREAM LEAKAGE =           0.0000        STREAM LEAKAGE '
               '=           0.0000\n',
               '-\n',
               '-           TOTAL OUT =    40624960.0000             TOTAL OUT '
               '=           0.2232\n',
               '-\n',
               '-            IN - OUT =         104.0000              IN - OUT '
               '=       5.3883E-05\n',
               '-\n',
               '- PERCENT DISCREPANCY =           0.00     PERCENT DISCREPANCY '
               '=           0.02\n',
               '-\n',
               '-\n',
               '-\n',
               '-\n',
               '-\n',
               '-\n',
               '-         TIME SUMMARY AT END OF TIME STEP   30 IN STRESS '
               'PERIOD   28\n',
               '-                    SECONDS     MINUTES      HOURS       '
               'DAYS        YEARS\n',
               '-                    '
               '-----------------------------------------------------------\n',
               '-   TIME STEP LENGTH 2.49961E+05  4166.0      69.434      '
               '2.8931     7.92080E-03\n',
               '- STRESS PERIOD TIME 2.59200E+06  43200.      720.00      '
               '30.000     8.21355E-02\n',
               '-         TOTAL TIME 7.25760E+07 1.20960E+06  20160.      '
               '840.00      2.2998    \n',
               '-1\n',
               '-1\n',
               '-                            STRESS PERIOD NO.   29, LENGTH '
               '=   2592000.    \n',
               '-                            '
               '-----------------------------------------------\n',
               '-\n',
               '-                              NUMBER OF TIME STEPS =    30\n',
               '-\n',
               '-                               MULTIPLIER FOR DELT =     '
               '1.100\n',
               '-\n',
               '-                            INITIAL TIME STEP SIZE =   '
               '15757.40    \n',
               '-\n',
               '- REUSING NON-PARAMETER GHB CELLS FROM LAST STRESS PERIOD\n',
               '-\n',
               '-      7 GHB CELLS\n',
               '- \n',
               '- SOLVING FOR HEAD \n',
               '-\n',
               '- NO OUTPUT CONTROL FOR STRESS PERIOD   29   TIME STEP    1\n',
               '- \n',
               '- SOLVING FOR HEAD \n',
               '-\n',
               '- NO OUTPUT CONTROL FOR STRESS PERIOD   29   TIME STEP    2\n',
               '- \n',
               '- SOLVING FOR HEAD \n',
               '-\n',
               '- NO OUTPUT CONTROL FOR STRESS PERIOD   29   TIME STEP    3\n',
               '- \n',
               '- SOLVING FOR HEAD \n',
               '-\n',
               '- NO OUTPUT CONTROL FOR STRESS PERIOD   29   TIME STEP    4\n',
               '- \n',
               '- SOLVING FOR HEAD \n',
               '-\n',
               '- NO OUTPUT CONTROL FOR STRESS PERIOD   29   TIME STEP    5\n',
               '- \n',
               '- SOLVING FOR HEAD \n',
               '-\n',
               '- NO OUTPUT CONTROL FOR STRESS PERIOD   29   TIME STEP    6\n',
               '- \n',
               '- SOLVING FOR HEAD \n',
               '-\n',
               '- NO OUTPUT CONTROL FOR STRESS PERIOD   29   TIME STEP    7\n',
               '- \n',
               '- SOLVING FOR HEAD \n',
               '-\n',
               '- NO OUTPUT CONTROL FOR STRESS PERIOD   29   TIME STEP    8\n',
               '- \n',
               '- SOLVING FOR HEAD \n',
               '-\n',
               '- NO OUTPUT CONTROL FOR STRESS PERIOD   29   TIME STEP    9\n',
               '- \n',
               '- SOLVING FOR HEAD \n',
               '-\n',
               '- NO OUTPUT CONTROL FOR STRESS PERIOD   29   TIME STEP   10\n',
               '- \n',
               '- SOLVING FOR HEAD \n',
               '-\n',
               '- NO OUTPUT CONTROL FOR STRESS PERIOD   29   TIME STEP   11\n',
               '- \n',
               '- SOLVING FOR HEAD \n',
               '-\n',
               '- NO OUTPUT CONTROL FOR STRESS PERIOD   29   TIME STEP   12\n',
               '- \n',
               '- SOLVING FOR HEAD \n',
               '-\n',
               '- NO OUTPUT CONTROL FOR STRESS PERIOD   29   TIME STEP   13\n',
               '- \n',
               '- SOLVING FOR HEAD \n',
               '-\n',
               '- NO OUTPUT CONTROL FOR STRESS PERIOD   29   TIME STEP   14\n',
               '- \n',
               '- SOLVING FOR HEAD \n',
               '-\n',
               '- NO OUTPUT CONTROL FOR STRESS PERIOD   29   TIME STEP   15\n',
               '- \n',
               '- SOLVING FOR HEAD \n',
               '-\n',
               '- NO OUTPUT CONTROL FOR STRESS PERIOD   29   TIME STEP   16\n',
               '- \n',
               '- SOLVING FOR HEAD \n',
               '-\n',
               '- NO OUTPUT CONTROL FOR STRESS PERIOD   29   TIME STEP   17\n',
               '- \n',
               '- SOLVING FOR HEAD \n',
               '-\n',
               '- NO OUTPUT CONTROL FOR STRESS PERIOD   29   TIME STEP   18\n',
               '- \n',
               '- SOLVING FOR HEAD \n',
               '-\n',
               '- NO OUTPUT CONTROL FOR STRESS PERIOD   29   TIME STEP   19\n',
               '- \n',
               '- SOLVING FOR HEAD \n',
               '-\n',
               '- NO OUTPUT CONTROL FOR STRESS PERIOD   29   TIME STEP   20\n',
               '- \n',
               '- SOLVING FOR HEAD \n',
               '-\n',
               '- NO OUTPUT CONTROL FOR STRESS PERIOD   29   TIME STEP   21\n',
               '- \n',
               '- SOLVING FOR HEAD \n',
               '-\n',
               '- NO OUTPUT CONTROL FOR STRESS PERIOD   29   TIME STEP   22\n',
               '- \n',
               '- SOLVING FOR HEAD \n',
               '-\n',
               '- NO OUTPUT CONTROL FOR STRESS PERIOD   29   TIME STEP   23\n',
               '- \n',
               '- SOLVING FOR HEAD \n',
               '-\n',
               '- NO OUTPUT CONTROL FOR STRESS PERIOD   29   TIME STEP   24\n',
               '- \n',
               '- SOLVING FOR HEAD \n',
               '-\n',
               '- NO OUTPUT CONTROL FOR STRESS PERIOD   29   TIME STEP   25\n',
               '- \n',
               '- SOLVING FOR HEAD \n',
               '-\n',
               '- NO OUTPUT CONTROL FOR STRESS PERIOD   29   TIME STEP   26\n',
               '- \n',
               '- SOLVING FOR HEAD \n',
               '-\n',
               '- NO OUTPUT CONTROL FOR STRESS PERIOD   29   TIME STEP   27\n',
               '- \n',
               '- SOLVING FOR HEAD \n',
               '-\n',
               '- NO OUTPUT CONTROL FOR STRESS PERIOD   29   TIME STEP   28\n',
               '- \n',
               '- SOLVING FOR HEAD \n',
               '-\n',
               '- NO OUTPUT CONTROL FOR STRESS PERIOD   29   TIME STEP   29\n',
               '- \n',
               '- SOLVING FOR HEAD \n',
               '-\n',
               '- NO OUTPUT CONTROL FOR STRESS PERIOD   29   TIME STEP   30\n',
               '-\n',
               '-\n',
               '-\n',
               '- STREAM LISTING     PERIOD     29   STEP       30\n',
               '-\n',
               '- LAYER ROW COL. STREAM  RCH.   FLOW INTO    STREAM     FLOW '
               'OUT OF   OVRLND.    DIRECT     STREAM      STREAM      '
               'STREAM     STREAM  STREAMBED   FLOW TO   CHNG. UNSAT. \n',
               '-                SEG.NO.  NO.   STRM. RCH.    LOSS       STRM. '
               'RCH.   RUNOFF     PRECIP       ET         HEAD        '
               'DEPTH      WIDTH  CONDCTNC.   WAT. TAB.\n',
               '-\n',
               '-   1    4    1     1     1    5.6800E+00  1.8891E-03   '
               '5.6781E+00  0.000E+00  0.000E+00  0.000E+00  1.41652E+02  '
               '1.802E+00  3.968E+00  8.217E-04  1.916E-03 -2.692E-05\n',
               '-   1    4    2     1     2    5.6781E+00  1.8886E-03   '
               '5.6762E+00  0.000E+00  0.000E+00  0.000E+00  1.41352E+02  '
               '1.802E+00  3.968E+00  8.216E-04  1.916E-03 -2.688E-05\n',
               '-   1    4    3     1     3    5.6762E+00  1.8881E-03   '
               '5.6743E+00  0.000E+00  0.000E+00  0.000E+00  1.41051E+02  '
               '1.801E+00  3.968E+00  8.215E-04  1.915E-03 -2.683E-05\n',
               '-   1    4    4     1     4    5.6743E+00  1.8877E-03   '
               '5.6724E+00  0.000E+00  0.000E+00  0.000E+00  1.40751E+02  '
               '1.801E+00  3.967E+00  8.214E-04  1.914E-03 -2.676E-05\n',
               '-   1    4    5     1     5    5.6724E+00  1.8872E-03   '
               '5.6705E+00  0.000E+00  0.000E+00  0.000E+00  1.40451E+02  '
               '1.801E+00  3.967E+00  8.213E-04  1.914E-03 -2.667E-05\n',
               '-   1    4    6     1     6    5.6705E+00  1.8867E-03   '
               '5.6686E+00  0.000E+00  0.000E+00  0.000E+00  1.40150E+02  '
               '1.800E+00  3.967E+00  8.212E-04  1.913E-03 -2.656E-05\n',
               '-   1    4    7     1     7    5.6686E+00  1.8862E-03   '
               '5.6668E+00  0.000E+00  0.000E+00  0.000E+00  1.39850E+02  '
               '1.800E+00  3.966E+00  8.211E-04  1.913E-03 -2.644E-05\n',
               '-   1    4    8     1     8    5.6668E+00  1.8857E-03   '
               '5.6649E+00  0.000E+00  0.000E+00  0.000E+00  1.39550E+02  '
               '1.800E+00  3.966E+00  8.210E-04  1.912E-03 -2.630E-05\n',
               '-   1    4    9     1     9    5.6649E+00  1.8852E-03   '
               '5.6630E+00  0.000E+00  0.000E+00  0.000E+00  1.39249E+02  '
               '1.800E+00  3.965E+00  8.209E-04  1.911E-03 -2.615E-05\n',
               '-   1    4   10     1    10    5.6630E+00  1.8847E-03   '
               '5.6611E+00  0.000E+00  0.000E+00  0.000E+00  1.38949E+02  '
               '1.799E+00  3.965E+00  8.208E-04  1.911E-03 -2.598E-05\n',
               '-   1    4   11     1    11    5.6611E+00  1.8842E-03   '
               '5.6592E+00  0.000E+00  0.000E+00  0.000E+00  1.38649E+02  '
               '1.799E+00  3.965E+00  8.207E-04  1.910E-03 -2.580E-05\n',
               '-   1    4   12     1    12    5.6592E+00  1.8838E-03   '
               '5.6573E+00  0.000E+00  0.000E+00  0.000E+00  1.38349E+02  '
               '1.799E+00  3.964E+00  8.206E-04  1.909E-03 -2.560E-05\n',
               '-   1    4   13     1    13    5.6573E+00  1.8833E-03   '
               '5.6554E+00  0.000E+00  0.000E+00  0.000E+00  1.38048E+02  '
               '1.798E+00  3.964E+00  8.204E-04  1.909E-03 -2.540E-05\n',
               '-   1    4   14     1    14    5.6554E+00  1.8828E-03   '
               '5.6536E+00  0.000E+00  0.000E+00  0.000E+00  1.37748E+02  '
               '1.798E+00  3.964E+00  8.203E-04  1.908E-03 -2.518E-05\n',
               '-   1    4   15     1    15    5.6536E+00  1.8823E-03   '
               '5.6517E+00  0.000E+00  0.000E+00  0.000E+00  1.37448E+02  '
               '1.798E+00  3.963E+00  8.202E-04  1.907E-03 -2.494E-05\n',
               '-   1    4   16     1    16    5.6517E+00  1.8818E-03   '
               '5.6498E+00  0.000E+00  0.000E+00  0.000E+00  1.37147E+02  '
               '1.797E+00  3.963E+00  8.201E-04  1.907E-03 -2.469E-05\n',
               '-   1    4   17     1    17    5.6498E+00  1.8813E-03   '
               '5.6479E+00  0.000E+00  0.000E+00  0.000E+00  1.36847E+02  '
               '1.797E+00  3.963E+00  8.200E-04  1.906E-03 -2.443E-05\n',
               '-   1    4   18     1    18    5.6479E+00  1.8809E-03   '
               '5.6460E+00  0.000E+00  0.000E+00  0.000E+00  1.36547E+02  '
               '1.797E+00  3.962E+00  8.199E-04  1.905E-03 -2.415E-05\n',
               '-   1    4   19     1    19    5.6460E+00  1.8804E-03   '
               '5.6442E+00  0.000E+00  0.000E+00  0.000E+00  1.36246E+02  '
               '1.796E+00  3.962E+00  8.198E-04  1.904E-03 -2.386E-05\n',
               '-   1    4   20     1    20    5.6442E+00  1.8799E-03   '
               '5.6423E+00  0.000E+00  0.000E+00  0.000E+00  1.35946E+02  '
               '1.796E+00  3.961E+00  8.197E-04  1.903E-03 -2.356E-05\n',
               '-   1    4   21     1    21    5.6423E+00  1.8794E-03   '
               '5.6404E+00  0.000E+00  0.000E+00  0.000E+00  1.35646E+02  '
               '1.796E+00  3.961E+00  8.196E-04  1.903E-03 -2.324E-05\n',
               '-   1    4   22     1    22    5.6404E+00  1.8789E-03   '
               '5.6385E+00  0.000E+00  0.000E+00  0.000E+00  1.35345E+02  '
               '1.795E+00  3.961E+00  8.195E-04  1.902E-03 -2.291E-05\n',
               '-   1    4   23     1    23    5.6385E+00  1.8784E-03   '
               '5.6366E+00  0.000E+00  0.000E+00  0.000E+00  1.35045E+02  '
               '1.795E+00  3.960E+00  8.194E-04  1.901E-03 -2.256E-05\n',
               '-   1    4   24     1    24    5.6366E+00  1.8779E-03   '
               '5.6348E+00  0.000E+00  0.000E+00  0.000E+00  1.34745E+02  '
               '1.795E+00  3.960E+00  8.193E-04  1.900E-03 -2.221E-05\n',
               '-   1    4   25     1    25    5.6348E+00  1.8775E-03   '
               '5.6329E+00  0.000E+00  0.000E+00  0.000E+00  1.34445E+02  '
               '1.795E+00  3.960E+00  8.192E-04  1.899E-03 -2.184E-05\n',
               '-   1    4   26     1    26    5.6329E+00  1.8770E-03   '
               '5.6310E+00  0.000E+00  0.000E+00  0.000E+00  1.34144E+02  '
               '1.794E+00  3.959E+00  8.191E-04  1.898E-03 -2.146E-05\n',
               '-   1    4   27     1    27    5.6310E+00  1.8765E-03   '
               '5.6291E+00  0.000E+00  0.000E+00  0.000E+00  1.33844E+02  '
               '1.794E+00  3.959E+00  8.190E-04  1.898E-03 -2.107E-05\n',
               '-   1    4   28     1    28    5.6291E+00  1.8760E-03   '
               '5.6273E+00  0.000E+00  0.000E+00  0.000E+00  1.33544E+02  '
               '1.794E+00  3.958E+00  8.189E-04  1.897E-03 -2.066E-05\n',
               '-   1    4   29     1    29    5.6273E+00  1.8755E-03   '
               '5.6254E+00  0.000E+00  0.000E+00  0.000E+00  1.33243E+02  '
               '1.793E+00  3.958E+00  8.188E-04  1.896E-03 -2.025E-05\n',
               '-   1    4   30     1    30    5.6254E+00  1.8750E-03   '
               '5.6235E+00  0.000E+00  0.000E+00  0.000E+00  1.32943E+02  '
               '1.793E+00  3.958E+00  8.187E-04  1.895E-03 -1.982E-05\n',
               '-   1    4   31     1    31    5.6235E+00  1.8746E-03   '
               '5.6216E+00  0.000E+00  0.000E+00  0.000E+00  1.32643E+02  '
               '1.793E+00  3.957E+00  8.186E-04  1.894E-03 -1.938E-05\n',
               '-   1    4   32     1    32    5.6216E+00  1.8741E-03   '
               '5.6198E+00  0.000E+00  0.000E+00  0.000E+00  1.32342E+02  '
               '1.792E+00  3.957E+00  8.185E-04  1.893E-03 -1.893E-05\n',
               '-   1    4   33     1    33    5.6198E+00  1.8736E-03   '
               '5.6179E+00  0.000E+00  0.000E+00  0.000E+00  1.32042E+02  '
               '1.792E+00  3.957E+00  8.184E-04  1.892E-03 -1.847E-05\n',
               '-   1    4   34     1    34    5.6179E+00  1.8731E-03   '
               '5.6160E+00  0.000E+00  0.000E+00  0.000E+00  1.31742E+02  '
               '1.792E+00  3.956E+00  8.183E-04  1.891E-03 -1.800E-05\n',
               '-   1    4   35     1    35    5.6160E+00  1.8726E-03   '
               '5.6141E+00  0.000E+00  0.000E+00  0.000E+00  1.31441E+02  '
               '1.791E+00  3.956E+00  8.182E-04  1.890E-03 -1.752E-05\n',
               '-   1    4   36     1    36    5.6141E+00  1.8721E-03   '
               '5.6123E+00  0.000E+00  0.000E+00  0.000E+00  1.31141E+02  '
               '1.791E+00  3.956E+00  8.181E-04  1.889E-03 -1.704E-05\n',
               '-   1    4   37     1    37    5.6123E+00  1.8717E-03   '
               '5.6104E+00  0.000E+00  0.000E+00  0.000E+00  1.30841E+02  '
               '1.791E+00  3.955E+00  8.180E-04  1.888E-03 -1.654E-05\n',
               '-   1    4   38     1    38    5.6104E+00  1.8712E-03   '
               '5.6085E+00  0.000E+00  0.000E+00  0.000E+00  1.30541E+02  '
               '1.791E+00  3.955E+00  8.179E-04  1.887E-03 -1.604E-05\n',
               '-   1    4   39     1    39    5.6085E+00  1.8707E-03   '
               '5.6067E+00  0.000E+00  0.000E+00  0.000E+00  1.30240E+02  '
               '1.790E+00  3.954E+00  8.178E-04  1.886E-03 -1.553E-05\n',
               '-   1    4   40     1    40    5.6067E+00  1.8702E-03   '
               '5.6048E+00  0.000E+00  0.000E+00  0.000E+00  1.29940E+02  '
               '1.790E+00  3.954E+00  8.177E-04  1.885E-03 -1.501E-05\n',
               '-   1    4   41     1    41    5.6048E+00  1.8697E-03   '
               '5.6029E+00  0.000E+00  0.000E+00  0.000E+00  1.29640E+02  '
               '1.790E+00  3.954E+00  8.176E-04  1.884E-03 -1.449E-05\n',
               '-   1    4   42     1    42    5.6029E+00  1.8692E-03   '
               '5.6010E+00  0.000E+00  0.000E+00  0.000E+00  1.29339E+02  '
               '1.789E+00  3.953E+00  8.175E-04  1.883E-03 -1.396E-05\n',
               '-   1    4   43     1    43    5.6010E+00  1.8688E-03   '
               '5.5992E+00  0.000E+00  0.000E+00  0.000E+00  1.29039E+02  '
               '1.789E+00  3.953E+00  8.174E-04  1.882E-03 -1.342E-05\n',
               '-   1    4   44     1    44    5.5992E+00  1.8683E-03   '
               '5.5973E+00  0.000E+00  0.000E+00  0.000E+00  1.28739E+02  '
               '1.789E+00  3.953E+00  8.173E-04  1.881E-03 -1.289E-05\n',
               '-   1    4   45     1    45    5.5973E+00  1.8678E-03   '
               '5.5954E+00  0.000E+00  0.000E+00  0.000E+00  1.28438E+02  '
               '1.788E+00  3.952E+00  8.172E-04  1.880E-03 -1.235E-05\n',
               '-   1    4   46     1    46    5.5954E+00  1.8673E-03   '
               '5.5936E+00  0.000E+00  0.000E+00  0.000E+00  1.28138E+02  '
               '1.788E+00  3.952E+00  8.171E-04  1.879E-03 -1.180E-05\n',
               '-   1    4   47     1    47    5.5936E+00  1.8668E-03   '
               '5.5917E+00  0.000E+00  0.000E+00  0.000E+00  1.27838E+02  '
               '1.788E+00  3.951E+00  8.170E-04  1.878E-03 -1.126E-05\n',
               '-   1    4   48     1    48    5.5917E+00  1.8663E-03   '
               '5.5898E+00  0.000E+00  0.000E+00  0.000E+00  1.27537E+02  '
               '1.787E+00  3.951E+00  8.169E-04  1.877E-03 -1.071E-05\n',
               '-   1    4   49     1    49    5.5898E+00  1.8659E-03   '
               '5.5880E+00  0.000E+00  0.000E+00  0.000E+00  1.27237E+02  '
               '1.787E+00  3.951E+00  8.168E-04  1.876E-03 -1.017E-05\n',
               '-   1    4   50     1    50    5.5880E+00  1.8654E-03   '
               '5.5861E+00  0.000E+00  0.000E+00  0.000E+00  1.26937E+02  '
               '1.787E+00  3.950E+00  8.167E-04  1.875E-03 -9.619E-06\n',
               '-   1    4   51     1    51    5.5861E+00  1.8649E-03   '
               '5.5842E+00  0.000E+00  0.000E+00  0.000E+00  1.26637E+02  '
               '1.787E+00  3.950E+00  8.166E-04  1.874E-03 -9.077E-06\n',
               '-   1    4   52     1    52    5.5842E+00  1.8644E-03   '
               '5.5824E+00  0.000E+00  0.000E+00  0.000E+00  1.26336E+02  '
               '1.786E+00  3.950E+00  8.165E-04  1.873E-03 -8.536E-06\n',
               '-   1    4   53     1    53    5.5824E+00  1.8639E-03   '
               '5.5805E+00  0.000E+00  0.000E+00  0.000E+00  1.26036E+02  '
               '1.786E+00  3.949E+00  8.164E-04  1.872E-03 -8.000E-06\n',
               '-   1    4   54     1    54    5.5805E+00  1.8635E-03   '
               '5.5787E+00  0.000E+00  0.000E+00  0.000E+00  1.25736E+02  '
               '1.786E+00  3.949E+00  8.163E-04  1.871E-03 -7.470E-06\n',
               '-   1    4   55     1    55    5.5787E+00  1.8630E-03   '
               '5.5768E+00  0.000E+00  0.000E+00  0.000E+00  1.25435E+02  '
               '1.785E+00  3.948E+00  8.162E-04  1.870E-03 -6.946E-06\n',
               '-   1    4   56     1    56    5.5768E+00  1.8625E-03   '
               '5.5749E+00  0.000E+00  0.000E+00  0.000E+00  1.25135E+02  '
               '1.785E+00  3.948E+00  8.161E-04  1.869E-03 -6.430E-06\n',
               '-   1    4   57     1    57    5.5749E+00  1.8620E-03   '
               '5.5731E+00  0.000E+00  0.000E+00  0.000E+00  1.24835E+02  '
               '1.785E+00  3.948E+00  8.160E-04  1.868E-03 -5.923E-06\n',
               '-   1    4   58     1    58    5.5731E+00  1.8615E-03   '
               '5.5712E+00  0.000E+00  0.000E+00  0.000E+00  1.24534E+02  '
               '1.784E+00  3.947E+00  8.159E-04  1.867E-03 -5.427E-06\n',
               '-   1    4   59     1    59    5.5712E+00  1.8611E-03   '
               '5.5693E+00  0.000E+00  0.000E+00  0.000E+00  1.24234E+02  '
               '1.784E+00  3.947E+00  8.158E-04  1.866E-03 -4.945E-06\n',
               '-   1    4   60     1    60    5.5693E+00  1.8606E-03   '
               '5.5675E+00  0.000E+00  0.000E+00  0.000E+00  1.23934E+02  '
               '1.784E+00  3.947E+00  8.157E-04  1.865E-03 -4.478E-06\n',
               '-   1    4   61     1    61    5.5675E+00  1.8601E-03   '
               '5.5656E+00  0.000E+00  0.000E+00  0.000E+00  1.23633E+02  '
               '1.783E+00  3.946E+00  8.156E-04  1.864E-03 -4.026E-06\n',
               '-   1    4   62     1    62    5.5656E+00  1.8596E-03   '
               '5.5638E+00  0.000E+00  0.000E+00  0.000E+00  1.23333E+02  '
               '1.783E+00  3.946E+00  8.155E-04  1.863E-03 -3.594E-06\n',
               '-   1    4   63     1    63    5.5638E+00  1.8591E-03   '
               '5.5619E+00  0.000E+00  0.000E+00  0.000E+00  1.23033E+02  '
               '1.783E+00  3.946E+00  8.154E-04  1.862E-03 -3.182E-06\n',
               '-   1    4   64     1    64    5.5619E+00  1.8587E-03   '
               '5.5600E+00  0.000E+00  0.000E+00  0.000E+00  1.22733E+02  '
               '1.783E+00  3.945E+00  8.153E-04  1.861E-03 -2.795E-06\n',
               '-   1    4   65     1    65    5.5600E+00  1.8582E-03   '
               '5.5582E+00  0.000E+00  0.000E+00  0.000E+00  1.22432E+02  '
               '1.782E+00  3.945E+00  8.152E-04  1.861E-03 -2.432E-06\n',
               '-   1    4   66     1    66    5.5582E+00  1.8577E-03   '
               '5.5563E+00  0.000E+00  0.000E+00  0.000E+00  1.22132E+02  '
               '1.782E+00  3.944E+00  8.151E-04  1.860E-03 -2.098E-06\n',
               '-   1    4   67     1    67    5.5563E+00  1.8572E-03   '
               '5.5545E+00  0.000E+00  0.000E+00  0.000E+00  1.21832E+02  '
               '1.782E+00  3.944E+00  8.150E-04  1.859E-03 -1.794E-06\n',
               '-   1    4   68     1    68    5.5545E+00  1.8567E-03   '
               '5.5526E+00  0.000E+00  0.000E+00  0.000E+00  1.21531E+02  '
               '1.781E+00  3.944E+00  8.149E-04  1.858E-03 -1.521E-06\n',
               '-   1    4   69     1    69    5.5526E+00  1.8563E-03   '
               '5.5508E+00  0.000E+00  0.000E+00  0.000E+00  1.21231E+02  '
               '1.781E+00  3.943E+00  8.148E-04  1.858E-03 -1.285E-06\n',
               '-   1    4   70     1    70    5.5508E+00  1.8558E-03   '
               '5.5489E+00  0.000E+00  0.000E+00  0.000E+00  1.20931E+02  '
               '1.781E+00  3.943E+00  8.147E-04  1.857E-03 -1.088E-06\n',
               '-   1    4   71     1    71    5.5489E+00  1.8553E-03   '
               '5.5470E+00  0.000E+00  0.000E+00  0.000E+00  1.20630E+02  '
               '1.780E+00  3.943E+00  8.146E-04  1.856E-03 -9.332E-07\n',
               '-   1    4   72     1    72    5.5470E+00  1.8548E-03   '
               '5.5452E+00  0.000E+00  0.000E+00  0.000E+00  1.20330E+02  '
               '1.780E+00  3.942E+00  8.145E-04  1.856E-03 -8.232E-07\n',
               '-   1    4   73     1    73    5.5452E+00  1.8543E-03   '
               '5.5433E+00  0.000E+00  0.000E+00  0.000E+00  1.20030E+02  '
               '1.780E+00  3.942E+00  8.144E-04  1.855E-03 -7.612E-07\n',
               '-   1    4   74     1    74    5.5433E+00  1.8539E-03   '
               '5.5415E+00  0.000E+00  0.000E+00  0.000E+00  1.19729E+02  '
               '1.779E+00  3.941E+00  8.143E-04  1.855E-03 -7.517E-07\n',
               '-   1    4   75     1    75    5.5415E+00  1.8534E-03   '
               '5.5396E+00  0.000E+00  0.000E+00  0.000E+00  1.19429E+02  '
               '1.779E+00  3.941E+00  8.142E-04  1.854E-03 -7.971E-07\n',
               '-   1    4   76     1    76    5.5396E+00  1.8529E-03   '
               '5.5378E+00  0.000E+00  0.000E+00  0.000E+00  1.19129E+02  '
               '1.779E+00  3.941E+00  8.141E-04  1.854E-03 -9.015E-07\n',
               '-   1    4   77     1    77    5.5378E+00  1.8524E-03   '
               '5.5359E+00  0.000E+00  0.000E+00  0.000E+00  1.18829E+02  '
               '1.779E+00  3.940E+00  8.140E-04  1.853E-03 -1.067E-06\n',
               '-   1    4   78     1    78    5.5359E+00  1.8519E-03   '
               '5.5341E+00  0.000E+00  0.000E+00  0.000E+00  1.18528E+02  '
               '1.778E+00  3.940E+00  8.139E-04  1.853E-03 -1.298E-06\n',
               '-   1    4   79     1    79    5.5341E+00  1.8515E-03   '
               '5.5322E+00  0.000E+00  0.000E+00  0.000E+00  1.18228E+02  '
               '1.778E+00  3.940E+00  8.138E-04  1.853E-03 -1.595E-06\n',
               '-   1    4   80     1    80    5.5322E+00  1.8510E-03   '
               '5.5304E+00  0.000E+00  0.000E+00  0.000E+00  1.17928E+02  '
               '1.778E+00  3.939E+00  8.137E-04  1.853E-03 -1.961E-06\n',
               '-   1    4   81     1    81    5.5304E+00  1.8505E-03   '
               '5.5285E+00  0.000E+00  0.000E+00  0.000E+00  1.17627E+02  '
               '1.777E+00  3.939E+00  8.136E-04  1.853E-03 -2.401E-06\n',
               '-   1    4   82     1    82    5.5285E+00  1.8500E-03   '
               '5.5267E+00  0.000E+00  0.000E+00  0.000E+00  1.17327E+02  '
               '1.777E+00  3.939E+00  8.135E-04  1.853E-03 -2.913E-06\n',
               '-   1    4   83     1    83    5.5267E+00  1.8495E-03   '
               '5.5248E+00  0.000E+00  0.000E+00  0.000E+00  1.17027E+02  '
               '1.777E+00  3.938E+00  8.134E-04  1.853E-03 -3.502E-06\n',
               '-   1    4   84     1    84    5.5248E+00  1.8491E-03   '
               '5.5230E+00  0.000E+00  0.000E+00  0.000E+00  1.16726E+02  '
               '1.776E+00  3.938E+00  8.133E-04  1.860E-03 -1.123E-05\n',
               '-   1    4   85     1    85    5.5230E+00  1.8486E-03   '
               '5.5211E+00  0.000E+00  0.000E+00  0.000E+00  1.16426E+02  '
               '1.776E+00  3.937E+00  8.132E-04  1.861E-03 -1.198E-05\n',
               '-   1    4   86     1    86    5.5211E+00  1.8481E-03   '
               '5.5193E+00  0.000E+00  0.000E+00  0.000E+00  1.16126E+02  '
               '1.776E+00  3.937E+00  8.131E-04  1.861E-03 -1.280E-05\n',
               '-   1    4   87     1    87    5.5193E+00  1.8476E-03   '
               '5.5174E+00  0.000E+00  0.000E+00  0.000E+00  1.15825E+02  '
               '1.775E+00  3.937E+00  8.130E-04  1.861E-03 -1.369E-05\n',
               '-   1    4   88     1    88    5.5174E+00  1.8472E-03   '
               '5.5156E+00  0.000E+00  0.000E+00  0.000E+00  1.15525E+02  '
               '1.775E+00  3.936E+00  8.129E-04  1.862E-03 -1.464E-05\n',
               '-   1    4   89     1    89    5.5156E+00  1.8467E-03   '
               '5.5137E+00  0.000E+00  0.000E+00  0.000E+00  1.15225E+02  '
               '1.775E+00  3.936E+00  8.128E-04  1.862E-03 -1.564E-05\n',
               '-   1    4   90     1    90    5.5137E+00  1.8462E-03   '
               '5.5119E+00  0.000E+00  0.000E+00  0.000E+00  1.14925E+02  '
               '1.775E+00  3.936E+00  8.127E-04  1.863E-03 -1.667E-05\n',
               '-   1    4   91     1    91    5.5119E+00  1.8457E-03   '
               '5.5100E+00  0.000E+00  0.000E+00  0.000E+00  1.14624E+02  '
               '1.774E+00  3.935E+00  8.126E-04  1.870E-03 -2.464E-05\n',
               '-   1    4   92     1    92    5.5100E+00  1.8452E-03   '
               '5.5082E+00  0.000E+00  0.000E+00  0.000E+00  1.14324E+02  '
               '1.774E+00  3.935E+00  8.125E-04  1.871E-03 -2.569E-05\n',
               '-   1    4   93     1    93    5.5082E+00  1.8448E-03   '
               '5.5063E+00  0.000E+00  0.000E+00  0.000E+00  1.14024E+02  '
               '1.774E+00  3.935E+00  8.124E-04  1.871E-03 -2.669E-05\n',
               '-   1    4   94     1    94    5.5063E+00  1.8443E-03   '
               '5.5045E+00  0.000E+00  0.000E+00  0.000E+00  1.13723E+02  '
               '1.773E+00  3.934E+00  8.123E-04  1.872E-03 -2.761E-05\n',
               '-   1    4   95     1    95    5.5045E+00  1.8438E-03   '
               '5.5027E+00  0.000E+00  0.000E+00  0.000E+00  1.13423E+02  '
               '1.773E+00  3.934E+00  8.122E-04  1.872E-03 -2.839E-05\n',
               '-   1    4   96     1    96    5.5027E+00  1.8433E-03   '
               '5.5008E+00  0.000E+00  0.000E+00  0.000E+00  1.13123E+02  '
               '1.773E+00  3.933E+00  8.121E-04  1.872E-03 -2.901E-05\n',
               '-   1    4   97     1    97    5.5008E+00  1.8429E-03   '
               '5.4990E+00  0.000E+00  0.000E+00  0.000E+00  1.12822E+02  '
               '1.772E+00  3.933E+00  8.120E-04  1.872E-03 -2.945E-05\n',
               '-   1    4   98     1    98    5.4990E+00  1.8424E-03   '
               '5.4971E+00  0.000E+00  0.000E+00  0.000E+00  1.12522E+02  '
               '1.772E+00  3.933E+00  8.119E-04  1.872E-03 -2.971E-05\n',
               '-   1    4   99     1    99    5.4971E+00  1.8419E-03   '
               '5.4953E+00  0.000E+00  0.000E+00  0.000E+00  1.12222E+02  '
               '1.772E+00  3.932E+00  8.118E-04  1.872E-03 -2.982E-05\n',
               '-   1    4  100     1   100    5.4953E+00  1.8414E-03   '
               '5.4934E+00  0.000E+00  0.000E+00  0.000E+00  1.11921E+02  '
               '1.771E+00  3.932E+00  8.117E-04  1.871E-03 -2.985E-05\n',
               '-\n',
               '-\n',
               '-\n',
               '-1\n',
               '-  VOLUMETRIC BUDGET FOR UNSATURATED ZONE BENEATH STREAMS AT '
               'END OF TIME STEP    30 STRESS PERIOD  29\n',
               '-  '
               '------------------------------------------------------------------------------------------------\n',
               '-\n',
               '-    CUMULATIVE VOLUMES             L**3    RATES FOR THIS '
               'TIME STEP         L**3/T\n',
               '-    ------------------                     '
               '------------------------\n',
               '-\n',
               '-\n',
               '-          STREAM LOSS =     28241318.0000            STREAM '
               'LOSS =            0.1865\n',
               '-    CHANGE IN STORAGE =       404396.1562      CHANGE IN '
               'STORAGE =       -1.5105E-03\n',
               '-       RECHARGE TO GW =     27840704.0000         RECHARGE TO '
               'GW =            0.1880\n',
               '-\n',
               '-             TOTAL IN =     28241318.0000               TOTAL '
               'IN =            0.1880\n',
               '-\n',
               '-            TOTAL OUT =     28245100.0000              TOTAL '
               'OUT =            0.1880\n',
               '-\n',
               '-             IN - OUT =        -3782.0000               IN - '
               'OUT =       -4.4703E-08\n',
               '-\n',
               '-  PERCENT DISCREPANCY =           -0.00      PERCENT '
               'DISCREPANCY =            -0.00\n',
               '-\n',
               '-\n',
               '-\n',
               '-1\n',
               '-  VOLUMETRIC BUDGET FOR ENTIRE MODEL AT END OF TIME STEP   '
               '30, STRESS PERIOD  29\n',
               '-  '
               '------------------------------------------------------------------------------\n',
               '-\n',
               '-     CUMULATIVE VOLUMES      L**3       RATES FOR THIS TIME '
               'STEP      L**3/T\n',
               '-     ------------------                 '
               '------------------------\n',
               '-\n',
               '-           IN:                                      IN:\n',
               '-           ---                                      ---\n',
               '-             STORAGE =    13412262.0000               STORAGE '
               '=       6.0576E-02\n',
               '-       CONSTANT HEAD =           0.0000         CONSTANT HEAD '
               '=           0.0000\n',
               '-     HEAD DEP BOUNDS =           0.0000       HEAD DEP BOUNDS '
               '=           0.0000\n',
               '-      STREAM LEAKAGE =    27840854.0000        STREAM LEAKAGE '
               '=           0.1880\n',
               '-\n',
               '-            TOTAL IN =    41253116.0000              TOTAL IN '
               '=           0.2486\n',
               '-\n',
               '-          OUT:                                     OUT:\n',
               '-          ----                                     ----\n',
               '-             STORAGE =    15716000.0000               STORAGE '
               '=       2.4445E-02\n',
               '-       CONSTANT HEAD =           0.0000         CONSTANT HEAD '
               '=           0.0000\n',
               '-     HEAD DEP BOUNDS =    25537002.0000       HEAD DEP BOUNDS '
               '=           0.2241\n',
               '-      STREAM LEAKAGE =           0.0000        STREAM LEAKAGE '
               '=           0.0000\n',
               '-\n',
               '-           TOTAL OUT =    41253000.0000             TOTAL OUT '
               '=           0.2486\n',
               '-\n',
               '-            IN - OUT =         116.0000              IN - OUT '
               '=       2.4721E-05\n',
               '-\n',
               '- PERCENT DISCREPANCY =           0.00     PERCENT DISCREPANCY '
               '=           0.01\n',
               '-\n',
               '-\n',
               '-\n',
               '-\n',
               '-\n',
               '-\n',
               '-         TIME SUMMARY AT END OF TIME STEP   30 IN STRESS '
               'PERIOD   29\n',
               '-                    SECONDS     MINUTES      HOURS       '
               'DAYS        YEARS\n',
               '-                    '
               '-----------------------------------------------------------\n',
               '-   TIME STEP LENGTH 2.49961E+05  4166.0      69.434      '
               '2.8931     7.92080E-03\n',
               '- STRESS PERIOD TIME 2.59200E+06  43200.      720.00      '
               '30.000     8.21355E-02\n',
               '-         TOTAL TIME 7.51680E+07 1.25280E+06  20880.      '
               '870.00      2.3819    \n',
               '-1\n',
               '-1\n',
               '-                            STRESS PERIOD NO.   30, LENGTH '
               '=   2592000.    \n',
               '-                            '
               '-----------------------------------------------\n',
               '-\n',
               '-                              NUMBER OF TIME STEPS =    30\n',
               '-\n',
               '-                               MULTIPLIER FOR DELT =     '
               '1.100\n',
               '-\n',
               '-                            INITIAL TIME STEP SIZE =   '
               '15757.40    \n',
               '-\n',
               '- REUSING NON-PARAMETER GHB CELLS FROM LAST STRESS PERIOD\n',
               '-\n',
               '-      7 GHB CELLS\n',
               '- \n',
               '- SOLVING FOR HEAD \n',
               '-\n',
               '- NO OUTPUT CONTROL FOR STRESS PERIOD   30   TIME STEP    1\n',
               '- \n',
               '- SOLVING FOR HEAD \n',
               '-\n',
               '- NO OUTPUT CONTROL FOR STRESS PERIOD   30   TIME STEP    2\n',
               '- \n',
               '- SOLVING FOR HEAD \n',
               '-\n',
               '- NO OUTPUT CONTROL FOR STRESS PERIOD   30   TIME STEP    3\n',
               '- \n',
               '- SOLVING FOR HEAD \n',
               '-\n',
               '- NO OUTPUT CONTROL FOR STRESS PERIOD   30   TIME STEP    4\n',
               '- \n',
               '- SOLVING FOR HEAD \n',
               '-\n',
               '- NO OUTPUT CONTROL FOR STRESS PERIOD   30   TIME STEP    5\n',
               '- \n',
               '- SOLVING FOR HEAD \n',
               '-\n',
               '- NO OUTPUT CONTROL FOR STRESS PERIOD   30   TIME STEP    6\n',
               '- \n',
               '- SOLVING FOR HEAD \n',
               '-\n',
               '- NO OUTPUT CONTROL FOR STRESS PERIOD   30   TIME STEP    7\n',
               '- \n',
               '- SOLVING FOR HEAD \n',
               '-\n',
               '- NO OUTPUT CONTROL FOR STRESS PERIOD   30   TIME STEP    8\n',
               '- \n',
               '- SOLVING FOR HEAD \n',
               '-\n',
               '- NO OUTPUT CONTROL FOR STRESS PERIOD   30   TIME STEP    9\n',
               '- \n',
               '- SOLVING FOR HEAD \n',
               '-\n',
               '- NO OUTPUT CONTROL FOR STRESS PERIOD   30   TIME STEP   10\n',
               '- \n',
               '- SOLVING FOR HEAD \n',
               '-\n',
               '- NO OUTPUT CONTROL FOR STRESS PERIOD   30   TIME STEP   11\n',
               '- \n',
               '- SOLVING FOR HEAD \n',
               '-\n',
               '- NO OUTPUT CONTROL FOR STRESS PERIOD   30   TIME STEP   12\n',
               '- \n',
               '- SOLVING FOR HEAD \n',
               '-\n',
               '- NO OUTPUT CONTROL FOR STRESS PERIOD   30   TIME STEP   13\n',
               '- \n',
               '- SOLVING FOR HEAD \n',
               '-\n',
               '- NO OUTPUT CONTROL FOR STRESS PERIOD   30   TIME STEP   14\n',
               '- \n',
               '- SOLVING FOR HEAD \n',
               '-\n',
               '- NO OUTPUT CONTROL FOR STRESS PERIOD   30   TIME STEP   15\n',
               '- \n',
               '- SOLVING FOR HEAD \n',
               '-\n',
               '- NO OUTPUT CONTROL FOR STRESS PERIOD   30   TIME STEP   16\n',
               '- \n',
               '- SOLVING FOR HEAD \n',
               '-\n',
               '- NO OUTPUT CONTROL FOR STRESS PERIOD   30   TIME STEP   17\n',
               '- \n',
               '- SOLVING FOR HEAD \n',
               '-\n',
               '- NO OUTPUT CONTROL FOR STRESS PERIOD   30   TIME STEP   18\n',
               '- \n',
               '- SOLVING FOR HEAD \n',
               '-\n',
               '- NO OUTPUT CONTROL FOR STRESS PERIOD   30   TIME STEP   19\n',
               '- \n',
               '- SOLVING FOR HEAD \n',
               '-\n',
               '- NO OUTPUT CONTROL FOR STRESS PERIOD   30   TIME STEP   20\n',
               '- \n',
               '- SOLVING FOR HEAD \n',
               '-\n',
               '- NO OUTPUT CONTROL FOR STRESS PERIOD   30   TIME STEP   21\n',
               '- \n',
               '- SOLVING FOR HEAD \n',
               '-\n',
               '- NO OUTPUT CONTROL FOR STRESS PERIOD   30   TIME STEP   22\n',
               '- \n',
               '- SOLVING FOR HEAD \n',
               '-\n',
               '- NO OUTPUT CONTROL FOR STRESS PERIOD   30   TIME STEP   23\n',
               '- \n',
               '- SOLVING FOR HEAD \n',
               '-\n',
               '- NO OUTPUT CONTROL FOR STRESS PERIOD   30   TIME STEP   24\n',
               '- \n',
               '- SOLVING FOR HEAD \n',
               '-\n',
               '- NO OUTPUT CONTROL FOR STRESS PERIOD   30   TIME STEP   25\n',
               '- \n',
               '- SOLVING FOR HEAD \n',
               '-\n',
               '- NO OUTPUT CONTROL FOR STRESS PERIOD   30   TIME STEP   26\n',
               '- \n',
               '- SOLVING FOR HEAD \n',
               '-\n',
               '- NO OUTPUT CONTROL FOR STRESS PERIOD   30   TIME STEP   27\n',
               '- \n',
               '- SOLVING FOR HEAD \n',
               '-\n',
               '- NO OUTPUT CONTROL FOR STRESS PERIOD   30   TIME STEP   28\n',
               '- \n',
               '- SOLVING FOR HEAD \n',
               '-\n',
               '- NO OUTPUT CONTROL FOR STRESS PERIOD   30   TIME STEP   29\n',
               '- \n',
               '- SOLVING FOR HEAD \n',
               '-\n',
               '- OUTPUT CONTROL FOR STRESS PERIOD   30   TIME STEP   30\n',
               '-    PRINT HEAD FOR ALL LAYERS\n',
               '-    PRINT BUDGET\n',
               '-    SAVE BUDGET\n',
               '-\n',
               '-  HEAD DEP BOUNDS   PERIOD   30   STEP  30\n',
               '- BOUNDARY      1   LAYER   1   ROW     1   COL   100   RATE   '
               '-3.327376E-02\n',
               '- BOUNDARY      2   LAYER   1   ROW     2   COL   100   RATE   '
               '-3.331460E-02\n',
               '- BOUNDARY      3   LAYER   1   ROW     3   COL   100   RATE   '
               '-3.312847E-02\n',
               '- BOUNDARY      4   LAYER   1   ROW     4   COL   100   RATE   '
               '-2.521630E-02\n',
               '- BOUNDARY      5   LAYER   1   ROW     5   COL   100   RATE   '
               '-3.312847E-02\n',
               '- BOUNDARY      6   LAYER   1   ROW     6   COL   100   RATE   '
               '-3.331460E-02\n',
               '- BOUNDARY      7   LAYER   1   ROW     7   COL   100   RATE   '
               '-3.327376E-02\n',
               '-\n',
               '-\n',
               '-\n',
               '- STREAM LISTING     PERIOD     30   STEP       30\n',
               '-\n',
               '- LAYER ROW COL. STREAM  RCH.   FLOW INTO    STREAM     FLOW '
               'OUT OF   OVRLND.    DIRECT     STREAM      STREAM      '
               'STREAM     STREAM  STREAMBED   FLOW TO   CHNG. UNSAT. \n',
               '-                SEG.NO.  NO.   STRM. RCH.    LOSS       STRM. '
               'RCH.   RUNOFF     PRECIP       ET         HEAD        '
               'DEPTH      WIDTH  CONDCTNC.   WAT. TAB.\n',
               '-\n',
               '-   1    4    1     1     1    7.7100E+00  2.4034E-03   '
               '7.7076E+00  0.000E+00  0.000E+00  0.000E+00  1.41958E+02  '
               '2.108E+00  4.335E+00  9.217E-04  2.204E-03  1.997E-04\n',
               '-   1    4    2     1     2    7.7076E+00  2.4028E-03   '
               '7.7052E+00  0.000E+00  0.000E+00  0.000E+00  1.41658E+02  '
               '2.108E+00  4.335E+00  9.215E-04  2.203E-03  1.994E-04\n',
               '-   1    4    3     1     3    7.7052E+00  2.4022E-03   '
               '7.7027E+00  0.000E+00  0.000E+00  0.000E+00  1.41358E+02  '
               '2.108E+00  4.334E+00  9.214E-04  2.203E-03  1.991E-04\n',
               '-   1    4    4     1     4    7.7027E+00  2.4016E-03   '
               '7.7003E+00  0.000E+00  0.000E+00  0.000E+00  1.41057E+02  '
               '2.107E+00  4.334E+00  9.213E-04  2.203E-03  1.989E-04\n',
               '-   1    4    5     1     5    7.7003E+00  2.4010E-03   '
               '7.6979E+00  0.000E+00  0.000E+00  0.000E+00  1.40757E+02  '
               '2.107E+00  4.333E+00  9.212E-04  2.202E-03  1.986E-04\n',
               '-   1    4    6     1     6    7.6979E+00  2.4004E-03   '
               '7.6955E+00  0.000E+00  0.000E+00  0.000E+00  1.40457E+02  '
               '2.107E+00  4.333E+00  9.211E-04  2.202E-03  1.984E-04\n',
               '-   1    4    7     1     7    7.6955E+00  2.3998E-03   '
               '7.6931E+00  0.000E+00  0.000E+00  0.000E+00  1.40156E+02  '
               '2.106E+00  4.333E+00  9.210E-04  2.202E-03  1.982E-04\n',
               '-   1    4    8     1     8    7.6931E+00  2.3992E-03   '
               '7.6907E+00  0.000E+00  0.000E+00  0.000E+00  1.39856E+02  '
               '2.106E+00  4.332E+00  9.209E-04  2.201E-03  1.980E-04\n',
               '-   1    4    9     1     9    7.6907E+00  2.3986E-03   '
               '7.6883E+00  0.000E+00  0.000E+00  0.000E+00  1.39556E+02  '
               '2.106E+00  4.332E+00  9.208E-04  2.201E-03  1.978E-04\n',
               '-   1    4   10     1    10    7.6883E+00  2.3980E-03   '
               '7.6860E+00  0.000E+00  0.000E+00  0.000E+00  1.39255E+02  '
               '2.105E+00  4.331E+00  9.207E-04  2.200E-03  1.976E-04\n',
               '-   1    4   11     1    11    7.6860E+00  2.3974E-03   '
               '7.6836E+00  0.000E+00  0.000E+00  0.000E+00  1.38955E+02  '
               '2.105E+00  4.331E+00  9.206E-04  2.200E-03  1.974E-04\n',
               '-   1    4   12     1    12    7.6836E+00  2.3968E-03   '
               '7.6812E+00  0.000E+00  0.000E+00  0.000E+00  1.38655E+02  '
               '2.105E+00  4.331E+00  9.205E-04  2.200E-03  1.973E-04\n',
               '-   1    4   13     1    13    7.6812E+00  2.3962E-03   '
               '7.6788E+00  0.000E+00  0.000E+00  0.000E+00  1.38354E+02  '
               '2.104E+00  4.330E+00  9.203E-04  2.199E-03  1.972E-04\n',
               '-   1    4   14     1    14    7.6788E+00  2.3956E-03   '
               '7.6764E+00  0.000E+00  0.000E+00  0.000E+00  1.38054E+02  '
               '2.104E+00  4.330E+00  9.202E-04  2.199E-03  1.971E-04\n',
               '-   1    4   15     1    15    7.6764E+00  2.3950E-03   '
               '7.6740E+00  0.000E+00  0.000E+00  0.000E+00  1.37754E+02  '
               '2.104E+00  4.329E+00  9.201E-04  2.198E-03  1.970E-04\n',
               '-   1    4   16     1    16    7.6740E+00  2.3944E-03   '
               '7.6716E+00  0.000E+00  0.000E+00  0.000E+00  1.37453E+02  '
               '2.103E+00  4.329E+00  9.200E-04  2.198E-03  1.969E-04\n',
               '-   1    4   17     1    17    7.6716E+00  2.3938E-03   '
               '7.6692E+00  0.000E+00  0.000E+00  0.000E+00  1.37153E+02  '
               '2.103E+00  4.329E+00  9.199E-04  2.197E-03  1.968E-04\n',
               '-   1    4   18     1    18    7.6692E+00  2.3932E-03   '
               '7.6668E+00  0.000E+00  0.000E+00  0.000E+00  1.36853E+02  '
               '2.103E+00  4.328E+00  9.198E-04  2.196E-03  1.968E-04\n',
               '-   1    4   19     1    19    7.6668E+00  2.3927E-03   '
               '7.6644E+00  0.000E+00  0.000E+00  0.000E+00  1.36552E+02  '
               '2.102E+00  4.328E+00  9.197E-04  2.196E-03  1.967E-04\n',
               '-   1    4   20     1    20    7.6644E+00  2.3921E-03   '
               '7.6620E+00  0.000E+00  0.000E+00  0.000E+00  1.36252E+02  '
               '2.102E+00  4.327E+00  9.196E-04  2.195E-03  1.967E-04\n',
               '-   1    4   21     1    21    7.6620E+00  2.3915E-03   '
               '7.6596E+00  0.000E+00  0.000E+00  0.000E+00  1.35952E+02  '
               '2.102E+00  4.327E+00  9.195E-04  2.195E-03  1.967E-04\n',
               '-   1    4   22     1    22    7.6596E+00  2.3909E-03   '
               '7.6572E+00  0.000E+00  0.000E+00  0.000E+00  1.35651E+02  '
               '2.101E+00  4.327E+00  9.194E-04  2.194E-03  1.967E-04\n',
               '-   1    4   23     1    23    7.6572E+00  2.3903E-03   '
               '7.6548E+00  0.000E+00  0.000E+00  0.000E+00  1.35351E+02  '
               '2.101E+00  4.326E+00  9.192E-04  2.194E-03  1.967E-04\n',
               '-   1    4   24     1    24    7.6548E+00  2.3897E-03   '
               '7.6524E+00  0.000E+00  0.000E+00  0.000E+00  1.35051E+02  '
               '2.101E+00  4.326E+00  9.191E-04  2.193E-03  1.967E-04\n',
               '-   1    4   25     1    25    7.6524E+00  2.3891E-03   '
               '7.6501E+00  0.000E+00  0.000E+00  0.000E+00  1.34750E+02  '
               '2.100E+00  4.325E+00  9.190E-04  2.192E-03  1.967E-04\n',
               '-   1    4   26     1    26    7.6501E+00  2.3885E-03   '
               '7.6477E+00  0.000E+00  0.000E+00  0.000E+00  1.34450E+02  '
               '2.100E+00  4.325E+00  9.189E-04  2.192E-03  1.968E-04\n',
               '-   1    4   27     1    27    7.6477E+00  2.3879E-03   '
               '7.6453E+00  0.000E+00  0.000E+00  0.000E+00  1.34150E+02  '
               '2.100E+00  4.325E+00  9.188E-04  2.191E-03  1.968E-04\n',
               '-   1    4   28     1    28    7.6453E+00  2.3873E-03   '
               '7.6429E+00  0.000E+00  0.000E+00  0.000E+00  1.33849E+02  '
               '2.099E+00  4.324E+00  9.187E-04  2.190E-03  1.969E-04\n',
               '-   1    4   29     1    29    7.6429E+00  2.3867E-03   '
               '7.6405E+00  0.000E+00  0.000E+00  0.000E+00  1.33549E+02  '
               '2.099E+00  4.324E+00  9.186E-04  2.190E-03  1.970E-04\n',
               '-   1    4   30     1    30    7.6405E+00  2.3861E-03   '
               '7.6381E+00  0.000E+00  0.000E+00  0.000E+00  1.33249E+02  '
               '2.099E+00  4.323E+00  9.185E-04  2.189E-03  1.970E-04\n',
               '-   1    4   31     1    31    7.6381E+00  2.3855E-03   '
               '7.6357E+00  0.000E+00  0.000E+00  0.000E+00  1.32948E+02  '
               '2.098E+00  4.323E+00  9.184E-04  2.188E-03  1.971E-04\n',
               '-   1    4   32     1    32    7.6357E+00  2.3849E-03   '
               '7.6333E+00  0.000E+00  0.000E+00  0.000E+00  1.32648E+02  '
               '2.098E+00  4.323E+00  9.183E-04  2.196E-03  1.893E-04\n',
               '-   1    4   33     1    33    7.6333E+00  2.3844E-03   '
               '7.6310E+00  0.000E+00  0.000E+00  0.000E+00  1.32348E+02  '
               '2.098E+00  4.322E+00  9.182E-04  2.212E-03  1.725E-04\n',
               '-   1    4   34     1    34    7.6310E+00  2.3838E-03   '
               '7.6286E+00  0.000E+00  0.000E+00  0.000E+00  1.32047E+02  '
               '2.097E+00  4.322E+00  9.180E-04  2.227E-03  1.566E-04\n',
               '-   1    4   35     1    35    7.6286E+00  2.3832E-03   '
               '7.6262E+00  0.000E+00  0.000E+00  0.000E+00  1.31747E+02  '
               '2.097E+00  4.321E+00  9.179E-04  2.242E-03  1.414E-04\n',
               '-   1    4   36     1    36    7.6262E+00  2.3826E-03   '
               '7.6238E+00  0.000E+00  0.000E+00  0.000E+00  1.31447E+02  '
               '2.097E+00  4.321E+00  9.178E-04  2.255E-03  1.271E-04\n',
               '-   1    4   37     1    37    7.6238E+00  2.3820E-03   '
               '7.6214E+00  0.000E+00  0.000E+00  0.000E+00  1.31146E+02  '
               '2.096E+00  4.321E+00  9.177E-04  2.268E-03  1.137E-04\n',
               '-   1    4   38     1    38    7.6214E+00  2.3814E-03   '
               '7.6190E+00  0.000E+00  0.000E+00  0.000E+00  1.30846E+02  '
               '2.096E+00  4.320E+00  9.176E-04  2.280E-03  1.012E-04\n',
               '-   1    4   39     1    39    7.6190E+00  2.3808E-03   '
               '7.6167E+00  0.000E+00  0.000E+00  0.000E+00  1.30546E+02  '
               '2.096E+00  4.320E+00  9.175E-04  2.291E-03  8.965E-05\n',
               '-   1    4   40     1    40    7.6167E+00  2.3802E-03   '
               '7.6143E+00  0.000E+00  0.000E+00  0.000E+00  1.30245E+02  '
               '2.095E+00  4.319E+00  9.174E-04  2.301E-03  7.906E-05\n',
               '-   1    4   41     1    41    7.6143E+00  2.3796E-03   '
               '7.6119E+00  0.000E+00  0.000E+00  0.000E+00  1.29945E+02  '
               '2.095E+00  4.319E+00  9.173E-04  2.310E-03  6.946E-05\n',
               '-   1    4   42     1    42    7.6119E+00  2.3790E-03   '
               '7.6095E+00  0.000E+00  0.000E+00  0.000E+00  1.29645E+02  '
               '2.095E+00  4.319E+00  9.172E-04  2.318E-03  6.088E-05\n',
               '-   1    4   43     1    43    7.6095E+00  2.3784E-03   '
               '7.6072E+00  0.000E+00  0.000E+00  0.000E+00  1.29344E+02  '
               '2.094E+00  4.318E+00  9.171E-04  2.325E-03  5.334E-05\n',
               '-   1    4   44     1    44    7.6072E+00  2.3779E-03   '
               '7.6048E+00  0.000E+00  0.000E+00  0.000E+00  1.29044E+02  '
               '2.094E+00  4.318E+00  9.170E-04  2.331E-03  4.688E-05\n',
               '-   1    4   45     1    45    7.6048E+00  2.3773E-03   '
               '7.6024E+00  0.000E+00  0.000E+00  0.000E+00  1.28744E+02  '
               '2.094E+00  4.317E+00  9.168E-04  2.336E-03  4.150E-05\n',
               '-   1    4   46     1    46    7.6024E+00  2.3767E-03   '
               '7.6000E+00  0.000E+00  0.000E+00  0.000E+00  1.28443E+02  '
               '2.093E+00  4.317E+00  9.167E-04  2.339E-03  3.725E-05\n',
               '-   1    4   47     1    47    7.6000E+00  2.3761E-03   '
               '7.5976E+00  0.000E+00  0.000E+00  0.000E+00  1.28143E+02  '
               '2.093E+00  4.317E+00  9.166E-04  2.342E-03  3.416E-05\n',
               '-   1    4   48     1    48    7.5976E+00  2.3755E-03   '
               '7.5953E+00  0.000E+00  0.000E+00  0.000E+00  1.27843E+02  '
               '2.093E+00  4.316E+00  9.165E-04  2.343E-03  3.225E-05\n',
               '-   1    4   49     1    49    7.5953E+00  2.3749E-03   '
               '7.5929E+00  0.000E+00  0.000E+00  0.000E+00  1.27542E+02  '
               '2.092E+00  4.316E+00  9.164E-04  2.343E-03  3.154E-05\n',
               '-   1    4   50     1    50    7.5929E+00  2.3743E-03   '
               '7.5905E+00  0.000E+00  0.000E+00  0.000E+00  1.27242E+02  '
               '2.092E+00  4.315E+00  9.163E-04  2.342E-03  3.208E-05\n',
               '-   1    4   51     1    51    7.5905E+00  2.3737E-03   '
               '7.5881E+00  0.000E+00  0.000E+00  0.000E+00  1.26942E+02  '
               '2.092E+00  4.315E+00  9.162E-04  2.340E-03  3.389E-05\n',
               '-   1    4   52     1    52    7.5881E+00  2.3731E-03   '
               '7.5858E+00  0.000E+00  0.000E+00  0.000E+00  1.26641E+02  '
               '2.091E+00  4.315E+00  9.161E-04  2.336E-03  3.700E-05\n',
               '-   1    4   53     1    53    7.5858E+00  2.3725E-03   '
               '7.5834E+00  0.000E+00  0.000E+00  0.000E+00  1.26341E+02  '
               '2.091E+00  4.314E+00  9.160E-04  2.331E-03  4.144E-05\n',
               '-   1    4   54     1    54    7.5834E+00  2.3720E-03   '
               '7.5810E+00  0.000E+00  0.000E+00  0.000E+00  1.26041E+02  '
               '2.091E+00  4.314E+00  9.159E-04  2.325E-03  4.724E-05\n',
               '-   1    4   55     1    55    7.5810E+00  2.3714E-03   '
               '7.5787E+00  0.000E+00  0.000E+00  0.000E+00  1.25740E+02  '
               '2.090E+00  4.313E+00  9.157E-04  2.317E-03  5.443E-05\n',
               '-   1    4   56     1    56    7.5787E+00  2.3708E-03   '
               '7.5763E+00  0.000E+00  0.000E+00  0.000E+00  1.25440E+02  '
               '2.090E+00  4.313E+00  9.156E-04  2.308E-03  6.304E-05\n',
               '-   1    4   57     1    57    7.5763E+00  2.3702E-03   '
               '7.5739E+00  0.000E+00  0.000E+00  0.000E+00  1.25140E+02  '
               '2.090E+00  4.313E+00  9.155E-04  2.297E-03  7.309E-05\n',
               '-   1    4   58     1    58    7.5739E+00  2.3696E-03   '
               '7.5715E+00  0.000E+00  0.000E+00  0.000E+00  1.24839E+02  '
               '2.089E+00  4.312E+00  9.154E-04  2.285E-03  8.463E-05\n',
               '-   1    4   59     1    59    7.5715E+00  2.3690E-03   '
               '7.5692E+00  0.000E+00  0.000E+00  0.000E+00  1.24539E+02  '
               '2.089E+00  4.312E+00  9.153E-04  2.271E-03  9.768E-05\n',
               '-   1    4   60     1    60    7.5692E+00  2.3684E-03   '
               '7.5668E+00  0.000E+00  0.000E+00  0.000E+00  1.24239E+02  '
               '2.089E+00  4.311E+00  9.152E-04  2.256E-03  1.123E-04\n',
               '-   1    4   61     1    61    7.5668E+00  2.3678E-03   '
               '7.5644E+00  0.000E+00  0.000E+00  0.000E+00  1.23938E+02  '
               '2.088E+00  4.311E+00  9.151E-04  2.239E-03  1.284E-04\n',
               '-   1    4   62     1    62    7.5644E+00  2.3672E-03   '
               '7.5621E+00  0.000E+00  0.000E+00  0.000E+00  1.23638E+02  '
               '2.088E+00  4.311E+00  9.150E-04  2.221E-03  1.462E-04\n',
               '-   1    4   63     1    63    7.5621E+00  2.3667E-03   '
               '7.5597E+00  0.000E+00  0.000E+00  0.000E+00  1.23338E+02  '
               '2.088E+00  4.310E+00  9.149E-04  2.201E-03  1.657E-04\n',
               '-   1    4   64     1    64    7.5597E+00  2.3661E-03   '
               '7.5573E+00  0.000E+00  0.000E+00  0.000E+00  1.23037E+02  '
               '2.087E+00  4.310E+00  9.148E-04  2.179E-03  1.870E-04\n',
               '-   1    4   65     1    65    7.5573E+00  2.3655E-03   '
               '7.5550E+00  0.000E+00  0.000E+00  0.000E+00  1.22737E+02  '
               '2.087E+00  4.309E+00  9.147E-04  2.163E-03  2.020E-04\n',
               '-   1    4   66     1    66    7.5550E+00  2.3649E-03   '
               '7.5526E+00  0.000E+00  0.000E+00  0.000E+00  1.22437E+02  '
               '2.087E+00  4.309E+00  9.145E-04  2.163E-03  2.020E-04\n',
               '-   1    4   67     1    67    7.5526E+00  2.3643E-03   '
               '7.5502E+00  0.000E+00  0.000E+00  0.000E+00  1.22136E+02  '
               '2.086E+00  4.309E+00  9.144E-04  2.162E-03  2.020E-04\n',
               '-   1    4   68     1    68    7.5502E+00  2.3637E-03   '
               '7.5479E+00  0.000E+00  0.000E+00  0.000E+00  1.21836E+02  '
               '2.086E+00  4.308E+00  9.143E-04  2.162E-03  2.019E-04\n',
               '-   1    4   69     1    69    7.5479E+00  2.3631E-03   '
               '7.5455E+00  0.000E+00  0.000E+00  0.000E+00  1.21536E+02  '
               '2.086E+00  4.308E+00  9.142E-04  2.161E-03  2.018E-04\n',
               '-   1    4   70     1    70    7.5455E+00  2.3625E-03   '
               '7.5432E+00  0.000E+00  0.000E+00  0.000E+00  1.21235E+02  '
               '2.085E+00  4.307E+00  9.141E-04  2.161E-03  2.016E-04\n',
               '-   1    4   71     1    71    7.5432E+00  2.3619E-03   '
               '7.5408E+00  0.000E+00  0.000E+00  0.000E+00  1.20935E+02  '
               '2.085E+00  4.307E+00  9.140E-04  2.161E-03  2.013E-04\n',
               '-   1    4   72     1    72    7.5408E+00  2.3614E-03   '
               '7.5384E+00  0.000E+00  0.000E+00  0.000E+00  1.20635E+02  '
               '2.085E+00  4.307E+00  9.139E-04  2.160E-03  2.011E-04\n',
               '-   1    4   73     1    73    7.5384E+00  2.3608E-03   '
               '7.5361E+00  0.000E+00  0.000E+00  0.000E+00  1.20334E+02  '
               '2.084E+00  4.306E+00  9.138E-04  2.160E-03  2.008E-04\n',
               '-   1    4   74     1    74    7.5361E+00  2.3602E-03   '
               '7.5337E+00  0.000E+00  0.000E+00  0.000E+00  1.20034E+02  '
               '2.084E+00  4.306E+00  9.137E-04  2.160E-03  2.004E-04\n',
               '-   1    4   75     1    75    7.5337E+00  2.3596E-03   '
               '7.5314E+00  0.000E+00  0.000E+00  0.000E+00  1.19734E+02  '
               '2.084E+00  4.305E+00  9.136E-04  2.160E-03  2.000E-04\n',
               '-   1    4   76     1    76    7.5314E+00  2.3590E-03   '
               '7.5290E+00  0.000E+00  0.000E+00  0.000E+00  1.19433E+02  '
               '2.083E+00  4.305E+00  9.135E-04  2.159E-03  1.995E-04\n',
               '-   1    4   77     1    77    7.5290E+00  2.3584E-03   '
               '7.5266E+00  0.000E+00  0.000E+00  0.000E+00  1.19133E+02  '
               '2.083E+00  4.305E+00  9.133E-04  2.159E-03  1.990E-04\n',
               '-   1    4   78     1    78    7.5266E+00  2.3578E-03   '
               '7.5243E+00  0.000E+00  0.000E+00  0.000E+00  1.18833E+02  '
               '2.083E+00  4.304E+00  9.132E-04  2.159E-03  1.984E-04\n',
               '-   1    4   79     1    79    7.5243E+00  2.3573E-03   '
               '7.5219E+00  0.000E+00  0.000E+00  0.000E+00  1.18532E+02  '
               '2.082E+00  4.304E+00  9.131E-04  2.159E-03  1.978E-04\n',
               '-   1    4   80     1    80    7.5219E+00  2.3567E-03   '
               '7.5196E+00  0.000E+00  0.000E+00  0.000E+00  1.18232E+02  '
               '2.082E+00  4.303E+00  9.130E-04  2.160E-03  1.971E-04\n',
               '-   1    4   81     1    81    7.5196E+00  2.3561E-03   '
               '7.5172E+00  0.000E+00  0.000E+00  0.000E+00  1.17932E+02  '
               '2.082E+00  4.303E+00  9.129E-04  2.160E-03  1.964E-04\n',
               '-   1    4   82     1    82    7.5172E+00  2.3555E-03   '
               '7.5149E+00  0.000E+00  0.000E+00  0.000E+00  1.17631E+02  '
               '2.081E+00  4.303E+00  9.128E-04  2.160E-03  1.956E-04\n',
               '-   1    4   83     1    83    7.5149E+00  2.3549E-03   '
               '7.5125E+00  0.000E+00  0.000E+00  0.000E+00  1.17331E+02  '
               '2.081E+00  4.302E+00  9.127E-04  2.160E-03  1.948E-04\n',
               '-   1    4   84     1    84    7.5125E+00  2.3543E-03   '
               '7.5101E+00  0.000E+00  0.000E+00  0.000E+00  1.17031E+02  '
               '2.081E+00  4.302E+00  9.126E-04  2.160E-03  1.939E-04\n',
               '-   1    4   85     1    85    7.5101E+00  2.3537E-03   '
               '7.5078E+00  0.000E+00  0.000E+00  0.000E+00  1.16730E+02  '
               '2.080E+00  4.301E+00  9.125E-04  2.161E-03  1.930E-04\n',
               '-   1    4   86     1    86    7.5078E+00  2.3532E-03   '
               '7.5054E+00  0.000E+00  0.000E+00  0.000E+00  1.16430E+02  '
               '2.080E+00  4.301E+00  9.124E-04  2.161E-03  1.921E-04\n',
               '-   1    4   87     1    87    7.5054E+00  2.3526E-03   '
               '7.5031E+00  0.000E+00  0.000E+00  0.000E+00  1.16130E+02  '
               '2.080E+00  4.301E+00  9.123E-04  2.161E-03  1.911E-04\n',
               '-   1    4   88     1    88    7.5031E+00  2.3520E-03   '
               '7.5007E+00  0.000E+00  0.000E+00  0.000E+00  1.15829E+02  '
               '2.079E+00  4.300E+00  9.122E-04  2.169E-03  1.829E-04\n',
               '-   1    4   89     1    89    7.5007E+00  2.3514E-03   '
               '7.4984E+00  0.000E+00  0.000E+00  0.000E+00  1.15529E+02  '
               '2.079E+00  4.300E+00  9.120E-04  2.169E-03  1.819E-04\n',
               '-   1    4   90     1    90    7.4984E+00  2.3508E-03   '
               '7.4960E+00  0.000E+00  0.000E+00  0.000E+00  1.15229E+02  '
               '2.079E+00  4.299E+00  9.119E-04  2.170E-03  1.809E-04\n',
               '-   1    4   91     1    91    7.4960E+00  2.3502E-03   '
               '7.4937E+00  0.000E+00  0.000E+00  0.000E+00  1.14928E+02  '
               '2.078E+00  4.299E+00  9.118E-04  2.170E-03  1.799E-04\n',
               '-   1    4   92     1    92    7.4937E+00  2.3496E-03   '
               '7.4913E+00  0.000E+00  0.000E+00  0.000E+00  1.14628E+02  '
               '2.078E+00  4.299E+00  9.117E-04  2.171E-03  1.790E-04\n',
               '-   1    4   93     1    93    7.4913E+00  2.3491E-03   '
               '7.4890E+00  0.000E+00  0.000E+00  0.000E+00  1.14328E+02  '
               '2.078E+00  4.298E+00  9.116E-04  2.171E-03  1.781E-04\n',
               '-   1    4   94     1    94    7.4890E+00  2.3485E-03   '
               '7.4866E+00  0.000E+00  0.000E+00  0.000E+00  1.14027E+02  '
               '2.077E+00  4.298E+00  9.115E-04  2.171E-03  1.773E-04\n',
               '-   1    4   95     1    95    7.4866E+00  2.3479E-03   '
               '7.4843E+00  0.000E+00  0.000E+00  0.000E+00  1.13727E+02  '
               '2.077E+00  4.297E+00  9.114E-04  2.174E-03  1.736E-04\n',
               '-   1    4   96     1    96    7.4843E+00  2.3473E-03   '
               '7.4819E+00  0.000E+00  0.000E+00  0.000E+00  1.13427E+02  '
               '2.077E+00  4.297E+00  9.113E-04  2.178E-03  1.688E-04\n',
               '-   1    4   97     1    97    7.4819E+00  2.3467E-03   '
               '7.4796E+00  0.000E+00  0.000E+00  0.000E+00  1.13126E+02  '
               '2.076E+00  4.297E+00  9.112E-04  2.179E-03  1.682E-04\n',
               '-   1    4   98     1    98    7.4796E+00  2.3461E-03   '
               '7.4772E+00  0.000E+00  0.000E+00  0.000E+00  1.12826E+02  '
               '2.076E+00  4.296E+00  9.111E-04  2.179E-03  1.676E-04\n',
               '-   1    4   99     1    99    7.4772E+00  2.3456E-03   '
               '7.4749E+00  0.000E+00  0.000E+00  0.000E+00  1.12526E+02  '
               '2.076E+00  4.296E+00  9.110E-04  2.178E-03  1.671E-04\n',
               '-   1    4  100     1   100    7.4749E+00  2.3450E-03   '
               '7.4726E+00  0.000E+00  0.000E+00  0.000E+00  1.12225E+02  '
               '2.075E+00  4.295E+00  9.108E-04  2.178E-03  1.666E-04\n',
               '-\n',
               '-\n',
               '-\n',
               '-1\n',
               '-  VOLUMETRIC BUDGET FOR UNSATURATED ZONE BENEATH STREAMS AT '
               'END OF TIME STEP    30 STRESS PERIOD  30\n',
               '-  '
               '------------------------------------------------------------------------------------------------\n',
               '-\n',
               '-    CUMULATIVE VOLUMES             L**3    RATES FOR THIS '
               'TIME STEP         L**3/T\n',
               '-    ------------------                     '
               '------------------------\n',
               '-\n',
               '-\n',
               '-          STREAM LOSS =     28856726.0000            STREAM '
               'LOSS =            0.2374\n',
               '-    CHANGE IN STORAGE =       467505.2812      CHANGE IN '
               'STORAGE =        1.5838E-02\n',
               '-       RECHARGE TO GW =     28393030.0000         RECHARGE TO '
               'GW =            0.2216\n',
               '-\n',
               '-             TOTAL IN =     28856726.0000               TOTAL '
               'IN =            0.2374\n',
               '-\n',
               '-            TOTAL OUT =     28860536.0000              TOTAL '
               'OUT =            0.2374\n',
               '-\n',
               '-             IN - OUT =        -3810.0000               IN - '
               'OUT =        2.9802E-08\n',
               '-\n',
               '-  PERCENT DISCREPANCY =           -0.00      PERCENT '
               'DISCREPANCY =             0.00\n',
               '-\n',
               '-\n',
               '-\n',
               '-1\n',
               '-              HEAD IN LAYER   1 AT END OF TIME STEP  30 IN '
               'STRESS PERIOD   30\n',
               '-  '
               '---------------------------------------------------------------------------\n',
               '-\n',
               '-          1      2      3      4      5      6      7      '
               '8      9     10\n',
               '-         11     12     13     14     15     16     17     '
               '18     19     20\n',
               '-         21     22     23     24     25     26     27     '
               '28     29     30\n',
               '-         31     32     33     34     35     36     37     '
               '38     39     40\n',
               '-         41     42     43     44     45     46     47     '
               '48     49     50\n',
               '-         51     52     53     54     55     56     57     '
               '58     59     60\n',
               '-         61     62     63     64     65     66     67     '
               '68     69     70\n',
               '-         71     72     73     74     75     76     77     '
               '78     79     80\n',
               '-         81     82     83     84     85     86     87     '
               '88     89     90\n',
               '-         91     92     93     94     95     96     97     '
               '98     99    100\n',
               '- '
               '.........................................................................\n',
               '-   1   115.1  115.1  115.1  115.1  115.1  115.0  115.0  '
               '115.0  115.0  114.9\n',
               '-       114.9  114.9  114.8  114.8  114.7  114.7  114.6  '
               '114.6  114.5  114.4\n',
               '-       114.3  114.3  114.2  114.1  114.0  113.9  113.8  '
               '113.7  113.6  113.4\n',
               '-       113.3  113.2  113.0  112.9  112.7  112.6  112.4  '
               '112.2  112.0  111.9\n',
               '-       111.7  111.4  111.2  111.0  110.8  110.5  110.3  '
               '110.0  109.7  109.5\n',
               '-       109.2  108.9  108.5  108.2  107.9  107.5  107.1  '
               '106.8  106.4  106.0\n',
               '-       105.6  105.1  104.7  104.2  103.7  103.3  102.7  '
               '102.2  101.7  101.1\n',
               '-       100.6  100.0   99.4   98.7   98.1   97.4   96.7   '
               '96.0   95.3   94.6\n',
               '-        93.8   93.0   92.2   91.4   90.6   89.7   88.8   '
               '87.9   86.9   86.0\n',
               '-        85.0   84.0   83.0   81.9   80.8   79.7   78.6   '
               '77.4   76.2   75.0\n',
               '-   2   115.1  115.1  115.1  115.1  115.1  115.1  115.0  '
               '115.0  115.0  114.9\n',
               '-       114.9  114.9  114.8  114.8  114.7  114.7  114.6  '
               '114.6  114.5  114.4\n',
               '-       114.3  114.3  114.2  114.1  114.0  113.9  113.8  '
               '113.7  113.6  113.4\n',
               '-       113.3  113.2  113.0  112.9  112.7  112.6  112.4  '
               '112.2  112.0  111.9\n',
               '-       111.7  111.4  111.2  111.0  110.8  110.5  110.3  '
               '110.0  109.7  109.5\n',
               '-       109.2  108.9  108.5  108.2  107.9  107.5  107.2  '
               '106.8  106.4  106.0\n',
               '-       105.6  105.1  104.7  104.2  103.7  103.3  102.7  '
               '102.2  101.7  101.1\n',
               '-       100.6  100.0   99.4   98.7   98.1   97.4   96.7   '
               '96.0   95.3   94.6\n',
               '-        93.8   93.0   92.2   91.4   90.6   89.7   88.8   '
               '87.9   86.9   86.0\n',
               '-        85.0   84.0   83.0   81.9   80.8   79.7   78.6   '
               '77.4   76.2   75.0\n',
               '-   3   115.1  115.1  115.1  115.1  115.1  115.1  115.0  '
               '115.0  115.0  115.0\n',
               '-       114.9  114.9  114.8  114.8  114.7  114.7  114.6  '
               '114.6  114.5  114.4\n',
               '-       114.4  114.3  114.2  114.1  114.0  113.9  113.8  '
               '113.7  113.6  113.4\n',
               '-       113.3  113.2  113.0  112.9  112.7  112.6  112.4  '
               '112.2  112.0  111.9\n',
               '-       111.7  111.5  111.2  111.0  110.8  110.5  110.3  '
               '110.0  109.7  109.5\n',
               '-       109.2  108.9  108.5  108.2  107.9  107.5  107.2  '
               '106.8  106.4  106.0\n',
               '-       105.6  105.1  104.7  104.2  103.7  103.3  102.7  '
               '102.2  101.7  101.1\n',
               '-       100.6  100.0   99.4   98.7   98.1   97.4   96.7   '
               '96.0   95.3   94.6\n',
               '-        93.8   93.0   92.2   91.4   90.6   89.7   88.8   '
               '87.9   87.0   86.0\n',
               '-        85.0   84.0   83.0   81.9   80.8   79.7   78.6   '
               '77.4   76.2   75.0\n',
               '-   4   115.1  115.1  115.1  115.1  115.1  115.1  115.0  '
               '115.0  115.0  115.0\n',
               '-       114.9  114.9  114.8  114.8  114.7  114.7  114.6  '
               '114.6  114.5  114.4\n',
               '-       114.4  114.3  114.2  114.1  114.0  113.9  113.8  '
               '113.7  113.6  113.5\n',
               '-       113.3  113.2  113.0  112.9  112.7  112.6  112.4  '
               '112.2  112.1  111.9\n',
               '-       111.7  111.5  111.2  111.0  110.8  110.5  110.3  '
               '110.0  109.7  109.5\n',
               '-       109.2  108.9  108.5  108.2  107.9  107.5  107.2  '
               '106.8  106.4  106.0\n',
               '-       105.6  105.1  104.7  104.2  103.8  103.3  102.8  '
               '102.2  101.7  101.1\n',
               '-       100.6  100.0   99.4   98.7   98.1   97.4   96.7   '
               '96.0   95.3   94.6\n',
               '-        93.8   93.0   92.2   91.4   90.6   89.7   88.8   '
               '87.9   87.0   86.0\n',
               '-        85.0   84.0   83.0   81.9   80.8   79.7   78.6   '
               '77.4   76.2   75.0\n',
               '-   5   115.1  115.1  115.1  115.1  115.1  115.1  115.0  '
               '115.0  115.0  115.0\n',
               '-       114.9  114.9  114.8  114.8  114.7  114.7  114.6  '
               '114.6  114.5  114.4\n',
               '-       114.4  114.3  114.2  114.1  114.0  113.9  113.8  '
               '113.7  113.6  113.4\n',
               '-       113.3  113.2  113.0  112.9  112.7  112.6  112.4  '
               '112.2  112.0  111.9\n',
               '-       111.7  111.5  111.2  111.0  110.8  110.5  110.3  '
               '110.0  109.7  109.5\n',
               '-       109.2  108.9  108.5  108.2  107.9  107.5  107.2  '
               '106.8  106.4  106.0\n',
               '-       105.6  105.1  104.7  104.2  103.7  103.3  102.7  '
               '102.2  101.7  101.1\n',
               '-       100.6  100.0   99.4   98.7   98.1   97.4   96.7   '
               '96.0   95.3   94.6\n',
               '-        93.8   93.0   92.2   91.4   90.6   89.7   88.8   '
               '87.9   87.0   86.0\n',
               '-        85.0   84.0   83.0   81.9   80.8   79.7   78.6   '
               '77.4   76.2   75.0\n',
               '-   6   115.1  115.1  115.1  115.1  115.1  115.1  115.0  '
               '115.0  115.0  114.9\n',
               '-       114.9  114.9  114.8  114.8  114.7  114.7  114.6  '
               '114.6  114.5  114.4\n',
               '-       114.3  114.3  114.2  114.1  114.0  113.9  113.8  '
               '113.7  113.6  113.4\n',
               '-       113.3  113.2  113.0  112.9  112.7  112.6  112.4  '
               '112.2  112.0  111.9\n',
               '-       111.7  111.4  111.2  111.0  110.8  110.5  110.3  '
               '110.0  109.7  109.5\n',
               '-       109.2  108.9  108.5  108.2  107.9  107.5  107.2  '
               '106.8  106.4  106.0\n',
               '-       105.6  105.1  104.7  104.2  103.7  103.3  102.7  '
               '102.2  101.7  101.1\n',
               '-       100.6  100.0   99.4   98.7   98.1   97.4   96.7   '
               '96.0   95.3   94.6\n',
               '-        93.8   93.0   92.2   91.4   90.6   89.7   88.8   '
               '87.9   86.9   86.0\n',
               '-        85.0   84.0   83.0   81.9   80.8   79.7   78.6   '
               '77.4   76.2   75.0\n',
               '-   7   115.1  115.1  115.1  115.1  115.1  115.0  115.0  '
               '115.0  115.0  114.9\n',
               '-       114.9  114.9  114.8  114.8  114.7  114.7  114.6  '
               '114.6  114.5  114.4\n',
               '-       114.3  114.3  114.2  114.1  114.0  113.9  113.8  '
               '113.7  113.6  113.4\n',
               '-       113.3  113.2  113.0  112.9  112.7  112.6  112.4  '
               '112.2  112.0  111.9\n',
               '-       111.7  111.4  111.2  111.0  110.8  110.5  110.3  '
               '110.0  109.7  109.5\n',
               '-       109.2  108.9  108.5  108.2  107.9  107.5  107.1  '
               '106.8  106.4  106.0\n',
               '-       105.6  105.1  104.7  104.2  103.7  103.3  102.7  '
               '102.2  101.7  101.1\n',
               '-       100.6  100.0   99.4   98.7   98.1   97.4   96.7   '
               '96.0   95.3   94.6\n',
               '-        93.8   93.0   92.2   91.4   90.6   89.7   88.8   '
               '87.9   86.9   86.0\n',
               '-        85.0   84.0   83.0   81.9   80.8   79.7   78.6   '
               '77.4   76.2   75.0\n',
               '-1\n',
               '-  VOLUMETRIC BUDGET FOR ENTIRE MODEL AT END OF TIME STEP   '
               '30, STRESS PERIOD  30\n',
               '-  '
               '------------------------------------------------------------------------------\n',
               '-\n',
               '-     CUMULATIVE VOLUMES      L**3       RATES FOR THIS TIME '
               'STEP      L**3/T\n',
               '-     ------------------                 '
               '------------------------\n',
               '-\n',
               '-           IN:                                      IN:\n',
               '-           ---                                      ---\n',
               '-             STORAGE =    13528149.0000               STORAGE '
               '=       3.8384E-02\n',
               '-       CONSTANT HEAD =           0.0000         CONSTANT HEAD '
               '=           0.0000\n',
               '-     HEAD DEP BOUNDS =           0.0000       HEAD DEP BOUNDS '
               '=           0.0000\n',
               '-      STREAM LEAKAGE =    28393106.0000        STREAM LEAKAGE '
               '=           0.2216\n',
               '-\n',
               '-            TOTAL IN =    41921256.0000              TOTAL IN '
               '=           0.2600\n',
               '-\n',
               '-          OUT:                                     OUT:\n',
               '-          ----                                     ----\n',
               '-             STORAGE =    15802192.0000               STORAGE '
               '=       3.5270E-02\n',
               '-       CONSTANT HEAD =           0.0000         CONSTANT HEAD '
               '=           0.0000\n',
               '-     HEAD DEP BOUNDS =    26118900.0000       HEAD DEP BOUNDS '
               '=           0.2246\n',
               '-      STREAM LEAKAGE =           0.0000        STREAM LEAKAGE '
               '=           0.0000\n',
               '-\n',
               '-           TOTAL OUT =    41921092.0000             TOTAL OUT '
               '=           0.2599\n',
               '-\n',
               '-            IN - OUT =         164.0000              IN - OUT '
               '=       3.2037E-05\n',
               '-\n',
               '- PERCENT DISCREPANCY =           0.00     PERCENT DISCREPANCY '
               '=           0.01\n',
               '-\n',
               '-\n',
               '-\n',
               '-\n',
               '-\n',
               '-\n',
               '-         TIME SUMMARY AT END OF TIME STEP   30 IN STRESS '
               'PERIOD   30\n',
               '-                    SECONDS     MINUTES      HOURS       '
               'DAYS        YEARS\n',
               '-                    '
               '-----------------------------------------------------------\n',
               '-   TIME STEP LENGTH 2.49961E+05  4166.0      69.434      '
               '2.8931     7.92080E-03\n',
               '- STRESS PERIOD TIME 2.59200E+06  43200.      720.00      '
               '30.000     8.21355E-02\n',
               '-         TOTAL TIME 7.77600E+07 1.29600E+06  21600.      '
               '900.00      2.4641    \n',
               '-1\n',
               '-1\n',
               '-                            STRESS PERIOD NO.   31, LENGTH '
               '=   2592000.    \n',
               '-                            '
               '-----------------------------------------------\n',
               '-\n',
               '-                              NUMBER OF TIME STEPS =    30\n',
               '-\n',
               '-                               MULTIPLIER FOR DELT =     '
               '1.100\n',
               '-\n',
               '-                            INITIAL TIME STEP SIZE =   '
               '15757.40    \n',
               '-\n',
               '- REUSING NON-PARAMETER GHB CELLS FROM LAST STRESS PERIOD\n',
               '-\n',
               '-      7 GHB CELLS\n',
               '- \n',
               '- SOLVING FOR HEAD \n',
               '-\n',
               '- NO OUTPUT CONTROL FOR STRESS PERIOD   31   TIME STEP    1\n',
               '- \n',
               '- SOLVING FOR HEAD \n',
               '-\n',
               '- NO OUTPUT CONTROL FOR STRESS PERIOD   31   TIME STEP    2\n',
               '- \n',
               '- SOLVING FOR HEAD \n',
               '-\n',
               '- NO OUTPUT CONTROL FOR STRESS PERIOD   31   TIME STEP    3\n',
               '- \n',
               '- SOLVING FOR HEAD \n',
               '-\n',
               '- NO OUTPUT CONTROL FOR STRESS PERIOD   31   TIME STEP    4\n',
               '- \n',
               '- SOLVING FOR HEAD \n',
               '-\n',
               '- NO OUTPUT CONTROL FOR STRESS PERIOD   31   TIME STEP    5\n',
               '- \n',
               '- SOLVING FOR HEAD \n',
               '-\n',
               '- NO OUTPUT CONTROL FOR STRESS PERIOD   31   TIME STEP    6\n',
               '- \n',
               '- SOLVING FOR HEAD \n',
               '-\n',
               '- NO OUTPUT CONTROL FOR STRESS PERIOD   31   TIME STEP    7\n',
               '- \n',
               '- SOLVING FOR HEAD \n',
               '-\n',
               '- NO OUTPUT CONTROL FOR STRESS PERIOD   31   TIME STEP    8\n',
               '- \n',
               '- SOLVING FOR HEAD \n',
               '-\n',
               '- NO OUTPUT CONTROL FOR STRESS PERIOD   31   TIME STEP    9\n',
               '- \n',
               '- SOLVING FOR HEAD \n',
               '-\n',
               '- NO OUTPUT CONTROL FOR STRESS PERIOD   31   TIME STEP   10\n',
               '- \n',
               '- SOLVING FOR HEAD \n',
               '-\n',
               '- NO OUTPUT CONTROL FOR STRESS PERIOD   31   TIME STEP   11\n',
               '- \n',
               '- SOLVING FOR HEAD \n',
               '-\n',
               '- NO OUTPUT CONTROL FOR STRESS PERIOD   31   TIME STEP   12\n',
               '- \n',
               '- SOLVING FOR HEAD \n',
               '-\n',
               '- NO OUTPUT CONTROL FOR STRESS PERIOD   31   TIME STEP   13\n',
               '- \n',
               '- SOLVING FOR HEAD \n',
               '-\n',
               '- NO OUTPUT CONTROL FOR STRESS PERIOD   31   TIME STEP   14\n',
               '- \n',
               '- SOLVING FOR HEAD \n',
               '-\n',
               '- NO OUTPUT CONTROL FOR STRESS PERIOD   31   TIME STEP   15\n',
               '- \n',
               '- SOLVING FOR HEAD \n',
               '-\n',
               '- NO OUTPUT CONTROL FOR STRESS PERIOD   31   TIME STEP   16\n',
               '- \n',
               '- SOLVING FOR HEAD \n',
               '-\n',
               '- NO OUTPUT CONTROL FOR STRESS PERIOD   31   TIME STEP   17\n',
               '- \n',
               '- SOLVING FOR HEAD \n',
               '-\n',
               '- NO OUTPUT CONTROL FOR STRESS PERIOD   31   TIME STEP   18\n',
               '- \n',
               '- SOLVING FOR HEAD \n',
               '-\n',
               '- NO OUTPUT CONTROL FOR STRESS PERIOD   31   TIME STEP   19\n',
               '- \n',
               '- SOLVING FOR HEAD \n',
               '-\n',
               '- NO OUTPUT CONTROL FOR STRESS PERIOD   31   TIME STEP   20\n',
               '- \n',
               '- SOLVING FOR HEAD \n',
               '-\n',
               '- NO OUTPUT CONTROL FOR STRESS PERIOD   31   TIME STEP   21\n',
               '- \n',
               '- SOLVING FOR HEAD \n',
               '-\n',
               '- NO OUTPUT CONTROL FOR STRESS PERIOD   31   TIME STEP   22\n',
               '- \n',
               '- SOLVING FOR HEAD \n',
               '-\n',
               '- NO OUTPUT CONTROL FOR STRESS PERIOD   31   TIME STEP   23\n',
               '- \n',
               '- SOLVING FOR HEAD \n',
               '-\n',
               '- NO OUTPUT CONTROL FOR STRESS PERIOD   31   TIME STEP   24\n',
               '- \n',
               '- SOLVING FOR HEAD \n',
               '-\n',
               '- NO OUTPUT CONTROL FOR STRESS PERIOD   31   TIME STEP   25\n',
               '- \n',
               '- SOLVING FOR HEAD \n',
               '-\n',
               '- NO OUTPUT CONTROL FOR STRESS PERIOD   31   TIME STEP   26\n',
               '- \n',
               '- SOLVING FOR HEAD \n',
               '-\n',
               '- NO OUTPUT CONTROL FOR STRESS PERIOD   31   TIME STEP   27\n',
               '- \n',
               '- SOLVING FOR HEAD \n',
               '-\n',
               '- NO OUTPUT CONTROL FOR STRESS PERIOD   31   TIME STEP   28\n',
               '- \n',
               '- SOLVING FOR HEAD \n',
               '-\n',
               '- NO OUTPUT CONTROL FOR STRESS PERIOD   31   TIME STEP   29\n',
               '- \n',
               '- SOLVING FOR HEAD \n',
               '-\n',
               '- NO OUTPUT CONTROL FOR STRESS PERIOD   31   TIME STEP   30\n',
               '-\n',
               '-\n',
               '-\n',
               '- STREAM LISTING     PERIOD     31   STEP       30\n',
               '-\n',
               '- LAYER ROW COL. STREAM  RCH.   FLOW INTO    STREAM     FLOW '
               'OUT OF   OVRLND.    DIRECT     STREAM      STREAM      '
               'STREAM     STREAM  STREAMBED   FLOW TO   CHNG. UNSAT. \n',
               '-                SEG.NO.  NO.   STRM. RCH.    LOSS       STRM. '
               'RCH.   RUNOFF     PRECIP       ET         HEAD        '
               'DEPTH      WIDTH  CONDCTNC.   WAT. TAB.\n',
               '-\n',
               '-   1    4    1     1     1    5.4600E+00  1.8358E-03   '
               '5.4581E+00  0.000E+00  0.000E+00  0.000E+00  1.41616E+02  '
               '1.766E+00  3.925E+00  8.098E-04  1.951E-03 -1.153E-04\n',
               '-   1    4    2     1     2    5.4581E+00  1.8353E-03   '
               '5.4563E+00  0.000E+00  0.000E+00  0.000E+00  1.41315E+02  '
               '1.765E+00  3.925E+00  8.097E-04  1.948E-03 -1.129E-04\n',
               '-   1    4    3     1     3    5.4563E+00  1.8348E-03   '
               '5.4545E+00  0.000E+00  0.000E+00  0.000E+00  1.41015E+02  '
               '1.765E+00  3.924E+00  8.096E-04  1.945E-03 -1.106E-04\n',
               '-   1    4    4     1     4    5.4545E+00  1.8343E-03   '
               '5.4526E+00  0.000E+00  0.000E+00  0.000E+00  1.40715E+02  '
               '1.765E+00  3.924E+00  8.095E-04  1.943E-03 -1.082E-04\n',
               '-   1    4    5     1     5    5.4526E+00  1.8339E-03   '
               '5.4508E+00  0.000E+00  0.000E+00  0.000E+00  1.40414E+02  '
               '1.764E+00  3.923E+00  8.094E-04  1.940E-03 -1.059E-04\n',
               '-   1    4    6     1     6    5.4508E+00  1.8334E-03   '
               '5.4490E+00  0.000E+00  0.000E+00  0.000E+00  1.40114E+02  '
               '1.764E+00  3.923E+00  8.093E-04  1.937E-03 -1.038E-04\n',
               '-   1    4    7     1     7    5.4490E+00  1.8329E-03   '
               '5.4471E+00  0.000E+00  0.000E+00  0.000E+00  1.39814E+02  '
               '1.764E+00  3.923E+00  8.092E-04  1.936E-03 -1.035E-04\n',
               '-   1    4    8     1     8    5.4471E+00  1.8324E-03   '
               '5.4453E+00  0.000E+00  0.000E+00  0.000E+00  1.39513E+02  '
               '1.763E+00  3.922E+00  8.091E-04  1.936E-03 -1.033E-04\n',
               '-   1    4    9     1     9    5.4453E+00  1.8320E-03   '
               '5.4435E+00  0.000E+00  0.000E+00  0.000E+00  1.39213E+02  '
               '1.763E+00  3.922E+00  8.090E-04  1.935E-03 -1.030E-04\n',
               '-   1    4   10     1    10    5.4435E+00  1.8315E-03   '
               '5.4416E+00  0.000E+00  0.000E+00  0.000E+00  1.38913E+02  '
               '1.763E+00  3.922E+00  8.089E-04  1.934E-03 -1.027E-04\n',
               '-   1    4   11     1    11    5.4416E+00  1.8310E-03   '
               '5.4398E+00  0.000E+00  0.000E+00  0.000E+00  1.38613E+02  '
               '1.763E+00  3.921E+00  8.088E-04  1.933E-03 -1.024E-04\n',
               '-   1    4   12     1    12    5.4398E+00  1.8305E-03   '
               '5.4380E+00  0.000E+00  0.000E+00  0.000E+00  1.38312E+02  '
               '1.762E+00  3.921E+00  8.087E-04  1.932E-03 -1.019E-04\n',
               '-   1    4   13     1    13    5.4380E+00  1.8301E-03   '
               '5.4361E+00  0.000E+00  0.000E+00  0.000E+00  1.38012E+02  '
               '1.762E+00  3.920E+00  8.086E-04  1.930E-03 -9.950E-05\n',
               '-   1    4   14     1    14    5.4361E+00  1.8296E-03   '
               '5.4343E+00  0.000E+00  0.000E+00  0.000E+00  1.37712E+02  '
               '1.762E+00  3.920E+00  8.085E-04  1.927E-03 -9.711E-05\n',
               '-   1    4   15     1    15    5.4343E+00  1.8291E-03   '
               '5.4325E+00  0.000E+00  0.000E+00  0.000E+00  1.37411E+02  '
               '1.761E+00  3.920E+00  8.084E-04  1.924E-03 -9.475E-05\n',
               '-   1    4   16     1    16    5.4325E+00  1.8286E-03   '
               '5.4307E+00  0.000E+00  0.000E+00  0.000E+00  1.37111E+02  '
               '1.761E+00  3.919E+00  8.083E-04  1.921E-03 -9.240E-05\n',
               '-   1    4   17     1    17    5.4307E+00  1.8282E-03   '
               '5.4288E+00  0.000E+00  0.000E+00  0.000E+00  1.36811E+02  '
               '1.761E+00  3.919E+00  8.082E-04  1.918E-03 -9.008E-05\n',
               '-   1    4   18     1    18    5.4288E+00  1.8277E-03   '
               '5.4270E+00  0.000E+00  0.000E+00  0.000E+00  1.36510E+02  '
               '1.760E+00  3.919E+00  8.081E-04  1.915E-03 -8.778E-05\n',
               '-   1    4   19     1    19    5.4270E+00  1.8272E-03   '
               '5.4252E+00  0.000E+00  0.000E+00  0.000E+00  1.36210E+02  '
               '1.760E+00  3.918E+00  8.080E-04  1.913E-03 -8.551E-05\n',
               '-   1    4   20     1    20    5.4252E+00  1.8268E-03   '
               '5.4233E+00  0.000E+00  0.000E+00  0.000E+00  1.35910E+02  '
               '1.760E+00  3.918E+00  8.079E-04  1.910E-03 -8.328E-05\n',
               '-   1    4   21     1    21    5.4233E+00  1.8263E-03   '
               '5.4215E+00  0.000E+00  0.000E+00  0.000E+00  1.35609E+02  '
               '1.759E+00  3.918E+00  8.078E-04  1.907E-03 -8.107E-05\n',
               '-   1    4   22     1    22    5.4215E+00  1.8258E-03   '
               '5.4197E+00  0.000E+00  0.000E+00  0.000E+00  1.35309E+02  '
               '1.759E+00  3.917E+00  8.077E-04  1.906E-03 -8.021E-05\n',
               '-   1    4   23     1    23    5.4197E+00  1.8253E-03   '
               '5.4179E+00  0.000E+00  0.000E+00  0.000E+00  1.35009E+02  '
               '1.759E+00  3.917E+00  8.076E-04  1.905E-03 -7.977E-05\n',
               '-   1    4   24     1    24    5.4179E+00  1.8249E-03   '
               '5.4160E+00  0.000E+00  0.000E+00  0.000E+00  1.34709E+02  '
               '1.759E+00  3.916E+00  8.075E-04  1.904E-03 -7.932E-05\n',
               '-   1    4   25     1    25    5.4160E+00  1.8244E-03   '
               '5.4142E+00  0.000E+00  0.000E+00  0.000E+00  1.34408E+02  '
               '1.758E+00  3.916E+00  8.074E-04  1.903E-03 -7.887E-05\n',
               '-   1    4   26     1    26    5.4142E+00  1.8239E-03   '
               '5.4124E+00  0.000E+00  0.000E+00  0.000E+00  1.34108E+02  '
               '1.758E+00  3.916E+00  8.073E-04  1.902E-03 -7.840E-05\n',
               '-   1    4   27     1    27    5.4124E+00  1.8234E-03   '
               '5.4106E+00  0.000E+00  0.000E+00  0.000E+00  1.33808E+02  '
               '1.758E+00  3.915E+00  8.072E-04  1.901E-03 -7.792E-05\n',
               '-   1    4   28     1    28    5.4106E+00  1.8230E-03   '
               '5.4087E+00  0.000E+00  0.000E+00  0.000E+00  1.33507E+02  '
               '1.757E+00  3.915E+00  8.071E-04  1.900E-03 -7.742E-05\n',
               '-   1    4   29     1    29    5.4087E+00  1.8225E-03   '
               '5.4069E+00  0.000E+00  0.000E+00  0.000E+00  1.33207E+02  '
               '1.757E+00  3.915E+00  8.070E-04  1.899E-03 -7.691E-05\n',
               '-   1    4   30     1    30    5.4069E+00  1.8220E-03   '
               '5.4051E+00  0.000E+00  0.000E+00  0.000E+00  1.32907E+02  '
               '1.757E+00  3.914E+00  8.069E-04  1.898E-03 -7.640E-05\n',
               '-   1    4   31     1    31    5.4051E+00  1.8216E-03   '
               '5.4033E+00  0.000E+00  0.000E+00  0.000E+00  1.32606E+02  '
               '1.756E+00  3.914E+00  8.068E-04  1.897E-03 -7.587E-05\n',
               '-   1    4   32     1    32    5.4033E+00  1.8211E-03   '
               '5.4015E+00  0.000E+00  0.000E+00  0.000E+00  1.32306E+02  '
               '1.756E+00  3.914E+00  8.067E-04  1.896E-03 -7.466E-05\n',
               '-   1    4   33     1    33    5.4015E+00  1.8206E-03   '
               '5.3996E+00  0.000E+00  0.000E+00  0.000E+00  1.32006E+02  '
               '1.756E+00  3.913E+00  8.066E-04  1.893E-03 -7.280E-05\n',
               '-   1    4   34     1    34    5.3996E+00  1.8201E-03   '
               '5.3978E+00  0.000E+00  0.000E+00  0.000E+00  1.31705E+02  '
               '1.755E+00  3.913E+00  8.065E-04  1.891E-03 -7.100E-05\n',
               '-   1    4   35     1    35    5.3978E+00  1.8197E-03   '
               '5.3960E+00  0.000E+00  0.000E+00  0.000E+00  1.31405E+02  '
               '1.755E+00  3.912E+00  8.064E-04  1.889E-03 -6.926E-05\n',
               '-   1    4   36     1    36    5.3960E+00  1.8192E-03   '
               '5.3942E+00  0.000E+00  0.000E+00  0.000E+00  1.31105E+02  '
               '1.755E+00  3.912E+00  8.063E-04  1.887E-03 -6.758E-05\n',
               '-   1    4   37     1    37    5.3942E+00  1.8187E-03   '
               '5.3924E+00  0.000E+00  0.000E+00  0.000E+00  1.30805E+02  '
               '1.755E+00  3.912E+00  8.062E-04  1.885E-03 -6.595E-05\n',
               '-   1    4   38     1    38    5.3924E+00  1.8183E-03   '
               '5.3905E+00  0.000E+00  0.000E+00  0.000E+00  1.30504E+02  '
               '1.754E+00  3.911E+00  8.061E-04  1.882E-03 -6.372E-05\n',
               '-   1    4   39     1    39    5.3905E+00  1.8178E-03   '
               '5.3887E+00  0.000E+00  0.000E+00  0.000E+00  1.30204E+02  '
               '1.754E+00  3.911E+00  8.060E-04  1.874E-03 -5.625E-05\n',
               '-   1    4   40     1    40    5.3887E+00  1.8173E-03   '
               '5.3869E+00  0.000E+00  0.000E+00  0.000E+00  1.29904E+02  '
               '1.754E+00  3.911E+00  8.059E-04  1.871E-03 -5.398E-05\n',
               '-   1    4   41     1    41    5.3869E+00  1.8168E-03   '
               '5.3851E+00  0.000E+00  0.000E+00  0.000E+00  1.29603E+02  '
               '1.753E+00  3.910E+00  8.058E-04  1.870E-03 -5.269E-05\n',
               '-   1    4   42     1    42    5.3851E+00  1.8164E-03   '
               '5.3833E+00  0.000E+00  0.000E+00  0.000E+00  1.29303E+02  '
               '1.753E+00  3.910E+00  8.057E-04  1.868E-03 -5.146E-05\n',
               '-   1    4   43     1    43    5.3833E+00  1.8159E-03   '
               '5.3815E+00  0.000E+00  0.000E+00  0.000E+00  1.29003E+02  '
               '1.753E+00  3.910E+00  8.056E-04  1.866E-03 -5.032E-05\n',
               '-   1    4   44     1    44    5.3815E+00  1.8154E-03   '
               '5.3796E+00  0.000E+00  0.000E+00  0.000E+00  1.28702E+02  '
               '1.752E+00  3.909E+00  8.055E-04  1.865E-03 -4.926E-05\n',
               '-   1    4   45     1    45    5.3796E+00  1.8150E-03   '
               '5.3778E+00  0.000E+00  0.000E+00  0.000E+00  1.28402E+02  '
               '1.752E+00  3.909E+00  8.054E-04  1.863E-03 -4.829E-05\n',
               '-   1    4   46     1    46    5.3778E+00  1.8145E-03   '
               '5.3760E+00  0.000E+00  0.000E+00  0.000E+00  1.28102E+02  '
               '1.752E+00  3.908E+00  8.053E-04  1.862E-03 -4.741E-05\n',
               '-   1    4   47     1    47    5.3760E+00  1.8140E-03   '
               '5.3742E+00  0.000E+00  0.000E+00  0.000E+00  1.27802E+02  '
               '1.752E+00  3.908E+00  8.052E-04  1.861E-03 -4.662E-05\n',
               '-   1    4   48     1    48    5.3742E+00  1.8135E-03   '
               '5.3724E+00  0.000E+00  0.000E+00  0.000E+00  1.27501E+02  '
               '1.751E+00  3.908E+00  8.051E-04  1.859E-03 -4.593E-05\n',
               '-   1    4   49     1    49    5.3724E+00  1.8131E-03   '
               '5.3706E+00  0.000E+00  0.000E+00  0.000E+00  1.27201E+02  '
               '1.751E+00  3.907E+00  8.050E-04  1.858E-03 -4.533E-05\n',
               '-   1    4   50     1    50    5.3706E+00  1.8126E-03   '
               '5.3688E+00  0.000E+00  0.000E+00  0.000E+00  1.26901E+02  '
               '1.751E+00  3.907E+00  8.049E-04  1.857E-03 -4.485E-05\n',
               '-   1    4   51     1    51    5.3688E+00  1.8121E-03   '
               '5.3670E+00  0.000E+00  0.000E+00  0.000E+00  1.26600E+02  '
               '1.750E+00  3.907E+00  8.048E-04  1.857E-03 -4.446E-05\n',
               '-   1    4   52     1    52    5.3670E+00  1.8117E-03   '
               '5.3651E+00  0.000E+00  0.000E+00  0.000E+00  1.26300E+02  '
               '1.750E+00  3.906E+00  8.047E-04  1.856E-03 -4.419E-05\n',
               '-   1    4   53     1    53    5.3651E+00  1.8112E-03   '
               '5.3633E+00  0.000E+00  0.000E+00  0.000E+00  1.26000E+02  '
               '1.750E+00  3.906E+00  8.046E-04  1.855E-03 -4.403E-05\n',
               '-   1    4   54     1    54    5.3633E+00  1.8107E-03   '
               '5.3615E+00  0.000E+00  0.000E+00  0.000E+00  1.25699E+02  '
               '1.749E+00  3.905E+00  8.045E-04  1.855E-03 -4.399E-05\n',
               '-   1    4   55     1    55    5.3615E+00  1.8103E-03   '
               '5.3597E+00  0.000E+00  0.000E+00  0.000E+00  1.25399E+02  '
               '1.749E+00  3.905E+00  8.044E-04  1.854E-03 -4.407E-05\n',
               '-   1    4   56     1    56    5.3597E+00  1.8098E-03   '
               '5.3579E+00  0.000E+00  0.000E+00  0.000E+00  1.25099E+02  '
               '1.749E+00  3.905E+00  8.043E-04  1.854E-03 -4.427E-05\n',
               '-   1    4   57     1    57    5.3579E+00  1.8093E-03   '
               '5.3561E+00  0.000E+00  0.000E+00  0.000E+00  1.24798E+02  '
               '1.748E+00  3.904E+00  8.042E-04  1.854E-03 -4.460E-05\n',
               '-   1    4   58     1    58    5.3561E+00  1.8088E-03   '
               '5.3543E+00  0.000E+00  0.000E+00  0.000E+00  1.24498E+02  '
               '1.748E+00  3.904E+00  8.041E-04  1.854E-03 -4.506E-05\n',
               '-   1    4   59     1    59    5.3543E+00  1.8084E-03   '
               '5.3525E+00  0.000E+00  0.000E+00  0.000E+00  1.24198E+02  '
               '1.748E+00  3.904E+00  8.040E-04  1.854E-03 -4.566E-05\n',
               '-   1    4   60     1    60    5.3525E+00  1.8079E-03   '
               '5.3507E+00  0.000E+00  0.000E+00  0.000E+00  1.23898E+02  '
               '1.748E+00  3.903E+00  8.039E-04  1.854E-03 -4.640E-05\n',
               '-   1    4   61     1    61    5.3507E+00  1.8074E-03   '
               '5.3489E+00  0.000E+00  0.000E+00  0.000E+00  1.23597E+02  '
               '1.747E+00  3.903E+00  8.038E-04  1.856E-03 -4.826E-05\n',
               '-   1    4   62     1    62    5.3489E+00  1.8070E-03   '
               '5.3471E+00  0.000E+00  0.000E+00  0.000E+00  1.23297E+02  '
               '1.747E+00  3.903E+00  8.037E-04  1.862E-03 -5.525E-05\n',
               '-   1    4   63     1    63    5.3471E+00  1.8065E-03   '
               '5.3452E+00  0.000E+00  0.000E+00  0.000E+00  1.22997E+02  '
               '1.747E+00  3.902E+00  8.036E-04  1.863E-03 -5.644E-05\n',
               '-   1    4   64     1    64    5.3452E+00  1.8060E-03   '
               '5.3434E+00  0.000E+00  0.000E+00  0.000E+00  1.22696E+02  '
               '1.746E+00  3.902E+00  8.035E-04  1.864E-03 -5.753E-05\n',
               '-   1    4   65     1    65    5.3434E+00  1.8056E-03   '
               '5.3416E+00  0.000E+00  0.000E+00  0.000E+00  1.22396E+02  '
               '1.746E+00  3.901E+00  8.034E-04  1.863E-03 -5.718E-05\n',
               '-   1    4   66     1    66    5.3416E+00  1.8051E-03   '
               '5.3398E+00  0.000E+00  0.000E+00  0.000E+00  1.22096E+02  '
               '1.746E+00  3.901E+00  8.033E-04  1.862E-03 -5.684E-05\n',
               '-   1    4   67     1    67    5.3398E+00  1.8046E-03   '
               '5.3380E+00  0.000E+00  0.000E+00  0.000E+00  1.21795E+02  '
               '1.745E+00  3.901E+00  8.032E-04  1.861E-03 -5.654E-05\n',
               '-   1    4   68     1    68    5.3380E+00  1.8042E-03   '
               '5.3362E+00  0.000E+00  0.000E+00  0.000E+00  1.21495E+02  '
               '1.745E+00  3.900E+00  8.031E-04  1.860E-03 -5.627E-05\n',
               '-   1    4   69     1    69    5.3362E+00  1.8037E-03   '
               '5.3344E+00  0.000E+00  0.000E+00  0.000E+00  1.21195E+02  '
               '1.745E+00  3.900E+00  8.030E-04  1.860E-03 -5.603E-05\n',
               '-   1    4   70     1    70    5.3344E+00  1.8032E-03   '
               '5.3326E+00  0.000E+00  0.000E+00  0.000E+00  1.20894E+02  '
               '1.744E+00  3.900E+00  8.029E-04  1.859E-03 -5.582E-05\n',
               '-   1    4   71     1    71    5.3326E+00  1.8028E-03   '
               '5.3308E+00  0.000E+00  0.000E+00  0.000E+00  1.20594E+02  '
               '1.744E+00  3.899E+00  8.028E-04  1.859E-03 -5.609E-05\n',
               '-   1    4   72     1    72    5.3308E+00  1.8023E-03   '
               '5.3290E+00  0.000E+00  0.000E+00  0.000E+00  1.20294E+02  '
               '1.744E+00  3.899E+00  8.027E-04  1.861E-03 -5.867E-05\n',
               '-   1    4   73     1    73    5.3290E+00  1.8018E-03   '
               '5.3272E+00  0.000E+00  0.000E+00  0.000E+00  1.19994E+02  '
               '1.744E+00  3.899E+00  8.026E-04  1.863E-03 -6.145E-05\n',
               '-   1    4   74     1    74    5.3272E+00  1.8013E-03   '
               '5.3254E+00  0.000E+00  0.000E+00  0.000E+00  1.19693E+02  '
               '1.743E+00  3.898E+00  8.025E-04  1.866E-03 -6.442E-05\n',
               '-   1    4   75     1    75    5.3254E+00  1.8009E-03   '
               '5.3236E+00  0.000E+00  0.000E+00  0.000E+00  1.19393E+02  '
               '1.743E+00  3.898E+00  8.024E-04  1.868E-03 -6.758E-05\n',
               '-   1    4   76     1    76    5.3236E+00  1.8004E-03   '
               '5.3218E+00  0.000E+00  0.000E+00  0.000E+00  1.19093E+02  '
               '1.743E+00  3.897E+00  8.023E-04  1.871E-03 -7.092E-05\n',
               '-   1    4   77     1    77    5.3218E+00  1.7999E-03   '
               '5.3200E+00  0.000E+00  0.000E+00  0.000E+00  1.18792E+02  '
               '1.742E+00  3.897E+00  8.022E-04  1.872E-03 -7.184E-05\n',
               '-   1    4   78     1    78    5.3200E+00  1.7995E-03   '
               '5.3182E+00  0.000E+00  0.000E+00  0.000E+00  1.18492E+02  '
               '1.742E+00  3.897E+00  8.021E-04  1.871E-03 -7.194E-05\n',
               '-   1    4   79     1    79    5.3182E+00  1.7990E-03   '
               '5.3164E+00  0.000E+00  0.000E+00  0.000E+00  1.18192E+02  '
               '1.742E+00  3.896E+00  8.020E-04  1.871E-03 -7.208E-05\n',
               '-   1    4   80     1    80    5.3164E+00  1.7985E-03   '
               '5.3146E+00  0.000E+00  0.000E+00  0.000E+00  1.17891E+02  '
               '1.741E+00  3.896E+00  8.019E-04  1.873E-03 -7.411E-05\n',
               '-   1    4   81     1    81    5.3146E+00  1.7981E-03   '
               '5.3128E+00  0.000E+00  0.000E+00  0.000E+00  1.17591E+02  '
               '1.741E+00  3.896E+00  8.018E-04  1.876E-03 -7.813E-05\n',
               '-   1    4   82     1    82    5.3128E+00  1.7976E-03   '
               '5.3110E+00  0.000E+00  0.000E+00  0.000E+00  1.17291E+02  '
               '1.741E+00  3.895E+00  8.017E-04  1.880E-03 -8.233E-05\n',
               '-   1    4   83     1    83    5.3110E+00  1.7971E-03   '
               '5.3092E+00  0.000E+00  0.000E+00  0.000E+00  1.16991E+02  '
               '1.741E+00  3.895E+00  8.016E-04  1.884E-03 -8.672E-05\n',
               '-   1    4   84     1    84    5.3092E+00  1.7967E-03   '
               '5.3074E+00  0.000E+00  0.000E+00  0.000E+00  1.16690E+02  '
               '1.740E+00  3.895E+00  8.015E-04  1.887E-03 -9.074E-05\n',
               '-   1    4   85     1    85    5.3074E+00  1.7962E-03   '
               '5.3056E+00  0.000E+00  0.000E+00  0.000E+00  1.16390E+02  '
               '1.740E+00  3.894E+00  8.014E-04  1.887E-03 -9.107E-05\n',
               '-   1    4   86     1    86    5.3056E+00  1.7957E-03   '
               '5.3038E+00  0.000E+00  0.000E+00  0.000E+00  1.16090E+02  '
               '1.740E+00  3.894E+00  8.013E-04  1.889E-03 -9.292E-05\n',
               '-   1    4   87     1    87    5.3038E+00  1.7953E-03   '
               '5.3020E+00  0.000E+00  0.000E+00  0.000E+00  1.15789E+02  '
               '1.739E+00  3.893E+00  8.012E-04  1.893E-03 -9.761E-05\n',
               '-   1    4   88     1    88    5.3020E+00  1.7948E-03   '
               '5.3002E+00  0.000E+00  0.000E+00  0.000E+00  1.15489E+02  '
               '1.739E+00  3.893E+00  8.011E-04  1.897E-03 -1.025E-04\n',
               '-   1    4   89     1    89    5.3002E+00  1.7943E-03   '
               '5.2984E+00  0.000E+00  0.000E+00  0.000E+00  1.15189E+02  '
               '1.739E+00  3.893E+00  8.010E-04  1.902E-03 -1.075E-04\n',
               '-   1    4   90     1    90    5.2984E+00  1.7939E-03   '
               '5.2966E+00  0.000E+00  0.000E+00  0.000E+00  1.14888E+02  '
               '1.738E+00  3.892E+00  8.009E-04  1.905E-03 -1.110E-04\n',
               '-   1    4   91     1    91    5.2966E+00  1.7934E-03   '
               '5.2948E+00  0.000E+00  0.000E+00  0.000E+00  1.14588E+02  '
               '1.738E+00  3.892E+00  8.008E-04  1.909E-03 -1.151E-04\n',
               '-   1    4   92     1    92    5.2948E+00  1.7929E-03   '
               '5.2931E+00  0.000E+00  0.000E+00  0.000E+00  1.14288E+02  '
               '1.738E+00  3.892E+00  8.007E-04  1.919E-03 -1.260E-04\n',
               '-   1    4   93     1    93    5.2931E+00  1.7925E-03   '
               '5.2913E+00  0.000E+00  0.000E+00  0.000E+00  1.13987E+02  '
               '1.737E+00  3.891E+00  8.006E-04  1.924E-03 -1.313E-04\n',
               '-   1    4   94     1    94    5.2913E+00  1.7920E-03   '
               '5.2895E+00  0.000E+00  0.000E+00  0.000E+00  1.13687E+02  '
               '1.737E+00  3.891E+00  8.005E-04  1.929E-03 -1.368E-04\n',
               '-   1    4   95     1    95    5.2895E+00  1.7915E-03   '
               '5.2877E+00  0.000E+00  0.000E+00  0.000E+00  1.13387E+02  '
               '1.737E+00  3.891E+00  8.004E-04  1.933E-03 -1.419E-04\n',
               '-   1    4   96     1    96    5.2877E+00  1.7911E-03   '
               '5.2859E+00  0.000E+00  0.000E+00  0.000E+00  1.13087E+02  '
               '1.737E+00  3.890E+00  8.003E-04  1.926E-03 -1.351E-04\n',
               '-   1    4   97     1    97    5.2859E+00  1.7906E-03   '
               '5.2841E+00  0.000E+00  0.000E+00  0.000E+00  1.12786E+02  '
               '1.736E+00  3.890E+00  8.002E-04  1.844E-03 -5.373E-05\n',
               '-   1    4   98     1    98    5.2841E+00  1.7902E-03   '
               '5.2823E+00  0.000E+00  0.000E+00  0.000E+00  1.12486E+02  '
               '1.736E+00  3.889E+00  8.001E-04  1.811E-03 -2.130E-05\n',
               '-   1    4   99     1    99    5.2823E+00  1.7897E-03   '
               '5.2805E+00  0.000E+00  0.000E+00  0.000E+00  1.12186E+02  '
               '1.736E+00  3.889E+00  8.000E-04  1.816E-03 -2.676E-05\n',
               '-   1    4  100     1   100    5.2805E+00  1.7892E-03   '
               '5.2787E+00  0.000E+00  0.000E+00  0.000E+00  1.11885E+02  '
               '1.735E+00  3.889E+00  7.999E-04  1.819E-03 -2.984E-05\n',
               '-\n',
               '-\n',
               '-\n',
               '-1\n',
               '-  VOLUMETRIC BUDGET FOR UNSATURATED ZONE BENEATH STREAMS AT '
               'END OF TIME STEP    30 STRESS PERIOD  31\n',
               '-  '
               '------------------------------------------------------------------------------------------------\n',
               '-\n',
               '-    CUMULATIVE VOLUMES             L**3    RATES FOR THIS '
               'TIME STEP         L**3/T\n',
               '-    ------------------                     '
               '------------------------\n',
               '-\n',
               '-\n',
               '-          STREAM LOSS =     29326444.0000            STREAM '
               'LOSS =            0.1812\n',
               '-    CHANGE IN STORAGE =       419325.5938      CHANGE IN '
               'STORAGE =       -7.4738E-03\n',
               '-       RECHARGE TO GW =     28911020.0000         RECHARGE TO '
               'GW =            0.1887\n',
               '-\n',
               '-             TOTAL IN =     29326444.0000               TOTAL '
               'IN =            0.1887\n',
               '-\n',
               '-            TOTAL OUT =     29330346.0000              TOTAL '
               'OUT =            0.1887\n',
               '-\n',
               '-             IN - OUT =        -3902.0000               IN - '
               'OUT =        1.4901E-08\n',
               '-\n',
               '-  PERCENT DISCREPANCY =           -0.00      PERCENT '
               'DISCREPANCY =             0.00\n',
               '-\n',
               '-\n',
               '-\n',
               '-1\n',
               '-  VOLUMETRIC BUDGET FOR ENTIRE MODEL AT END OF TIME STEP   '
               '30, STRESS PERIOD  31\n',
               '-  '
               '------------------------------------------------------------------------------\n',
               '-\n',
               '-     CUMULATIVE VOLUMES      L**3       RATES FOR THIS TIME '
               'STEP      L**3/T\n',
               '-     ------------------                 '
               '------------------------\n',
               '-\n',
               '-           IN:                                      IN:\n',
               '-           ---                                      ---\n',
               '-             STORAGE =    13660270.0000               STORAGE '
               '=       5.5480E-02\n',
               '-       CONSTANT HEAD =           0.0000         CONSTANT HEAD '
               '=           0.0000\n',
               '-     HEAD DEP BOUNDS =           0.0000       HEAD DEP BOUNDS '
               '=           0.0000\n',
               '-      STREAM LEAKAGE =    28911082.0000        STREAM LEAKAGE '
               '=           0.1887\n',
               '-\n',
               '-            TOTAL IN =    42571352.0000              TOTAL IN '
               '=           0.2442\n',
               '-\n',
               '-          OUT:                                     OUT:\n',
               '-          ----                                     ----\n',
               '-             STORAGE =    15873193.0000               STORAGE '
               '=       2.2011E-02\n',
               '-       CONSTANT HEAD =           0.0000         CONSTANT HEAD '
               '=           0.0000\n',
               '-     HEAD DEP BOUNDS =    26698000.0000       HEAD DEP BOUNDS '
               '=           0.2222\n',
               '-      STREAM LEAKAGE =           0.0000        STREAM LEAKAGE '
               '=           0.0000\n',
               '-\n',
               '-           TOTAL OUT =    42571192.0000             TOTAL OUT '
               '=           0.2442\n',
               '-\n',
               '-            IN - OUT =         160.0000              IN - OUT '
               '=       3.0190E-05\n',
               '-\n',
               '- PERCENT DISCREPANCY =           0.00     PERCENT DISCREPANCY '
               '=           0.01\n',
               '-\n',
               '-\n',
               '-\n',
               '-\n',
               '-\n',
               '-\n',
               '-         TIME SUMMARY AT END OF TIME STEP   30 IN STRESS '
               'PERIOD   31\n',
               '-                    SECONDS     MINUTES      HOURS       '
               'DAYS        YEARS\n',
               '-                    '
               '-----------------------------------------------------------\n',
               '-   TIME STEP LENGTH 2.49961E+05  4166.0      69.434      '
               '2.8931     7.92080E-03\n',
               '- STRESS PERIOD TIME 2.59200E+06  43200.      720.00      '
               '30.000     8.21355E-02\n',
               '-         TOTAL TIME 8.03520E+07 1.33920E+06  22320.      '
               '930.00      2.5462    \n',
               '-1\n',
               '-1\n',
               '-                            STRESS PERIOD NO.   32, LENGTH '
               '=   2592000.    \n',
               '-                            '
               '-----------------------------------------------\n',
               '-\n',
               '-                              NUMBER OF TIME STEPS =    30\n',
               '-\n',
               '-                               MULTIPLIER FOR DELT =     '
               '1.100\n',
               '-\n',
               '-                            INITIAL TIME STEP SIZE =   '
               '15757.40    \n',
               '-\n',
               '- REUSING NON-PARAMETER GHB CELLS FROM LAST STRESS PERIOD\n',
               '-\n',
               '-      7 GHB CELLS\n',
               '- \n',
               '- SOLVING FOR HEAD \n',
               '-\n',
               '- NO OUTPUT CONTROL FOR STRESS PERIOD   32   TIME STEP    1\n',
               '- \n',
               '- SOLVING FOR HEAD \n',
               '-\n',
               '- NO OUTPUT CONTROL FOR STRESS PERIOD   32   TIME STEP    2\n',
               '- \n',
               '- SOLVING FOR HEAD \n',
               '-\n',
               '- NO OUTPUT CONTROL FOR STRESS PERIOD   32   TIME STEP    3\n',
               '- \n',
               '- SOLVING FOR HEAD \n',
               '-\n',
               '- NO OUTPUT CONTROL FOR STRESS PERIOD   32   TIME STEP    4\n',
               '- \n',
               '- SOLVING FOR HEAD \n',
               '-\n',
               '- NO OUTPUT CONTROL FOR STRESS PERIOD   32   TIME STEP    5\n',
               '- \n',
               '- SOLVING FOR HEAD \n',
               '-\n',
               '- NO OUTPUT CONTROL FOR STRESS PERIOD   32   TIME STEP    6\n',
               '- \n',
               '- SOLVING FOR HEAD \n',
               '-\n',
               '- NO OUTPUT CONTROL FOR STRESS PERIOD   32   TIME STEP    7\n',
               '- \n',
               '- SOLVING FOR HEAD \n',
               '-\n',
               '- NO OUTPUT CONTROL FOR STRESS PERIOD   32   TIME STEP    8\n',
               '- \n',
               '- SOLVING FOR HEAD \n',
               '-\n',
               '- NO OUTPUT CONTROL FOR STRESS PERIOD   32   TIME STEP    9\n',
               '- \n',
               '- SOLVING FOR HEAD \n',
               '-\n',
               '- NO OUTPUT CONTROL FOR STRESS PERIOD   32   TIME STEP   10\n',
               '- \n',
               '- SOLVING FOR HEAD \n',
               '-\n',
               '- NO OUTPUT CONTROL FOR STRESS PERIOD   32   TIME STEP   11\n',
               '- \n',
               '- SOLVING FOR HEAD \n',
               '-\n',
               '- NO OUTPUT CONTROL FOR STRESS PERIOD   32   TIME STEP   12\n',
               '- \n',
               '- SOLVING FOR HEAD \n',
               '-\n',
               '- NO OUTPUT CONTROL FOR STRESS PERIOD   32   TIME STEP   13\n',
               '- \n',
               '- SOLVING FOR HEAD \n',
               '-\n',
               '- NO OUTPUT CONTROL FOR STRESS PERIOD   32   TIME STEP   14\n',
               '- \n',
               '- SOLVING FOR HEAD \n',
               '-\n',
               '- NO OUTPUT CONTROL FOR STRESS PERIOD   32   TIME STEP   15\n',
               '- \n',
               '- SOLVING FOR HEAD \n',
               '-\n',
               '- NO OUTPUT CONTROL FOR STRESS PERIOD   32   TIME STEP   16\n',
               '- \n',
               '- SOLVING FOR HEAD \n',
               '-\n',
               '- NO OUTPUT CONTROL FOR STRESS PERIOD   32   TIME STEP   17\n',
               '- \n',
               '- SOLVING FOR HEAD \n',
               '-\n',
               '- NO OUTPUT CONTROL FOR STRESS PERIOD   32   TIME STEP   18\n',
               '- \n',
               '- SOLVING FOR HEAD \n',
               '-\n',
               '- NO OUTPUT CONTROL FOR STRESS PERIOD   32   TIME STEP   19\n',
               '- \n',
               '- SOLVING FOR HEAD \n',
               '-\n',
               '- NO OUTPUT CONTROL FOR STRESS PERIOD   32   TIME STEP   20\n',
               '- \n',
               '- SOLVING FOR HEAD \n',
               '-\n',
               '- NO OUTPUT CONTROL FOR STRESS PERIOD   32   TIME STEP   21\n',
               '- \n',
               '- SOLVING FOR HEAD \n',
               '-\n',
               '- NO OUTPUT CONTROL FOR STRESS PERIOD   32   TIME STEP   22\n',
               '- \n',
               '- SOLVING FOR HEAD \n',
               '-\n',
               '- NO OUTPUT CONTROL FOR STRESS PERIOD   32   TIME STEP   23\n',
               '- \n',
               '- SOLVING FOR HEAD \n',
               '-\n',
               '- NO OUTPUT CONTROL FOR STRESS PERIOD   32   TIME STEP   24\n',
               '- \n',
               '- SOLVING FOR HEAD \n',
               '-\n',
               '- NO OUTPUT CONTROL FOR STRESS PERIOD   32   TIME STEP   25\n',
               '- \n',
               '- SOLVING FOR HEAD \n',
               '-\n',
               '- NO OUTPUT CONTROL FOR STRESS PERIOD   32   TIME STEP   26\n',
               '- \n',
               '- SOLVING FOR HEAD \n',
               '-\n',
               '- NO OUTPUT CONTROL FOR STRESS PERIOD   32   TIME STEP   27\n',
               '- \n',
               '- SOLVING FOR HEAD \n',
               '-\n',
               '- NO OUTPUT CONTROL FOR STRESS PERIOD   32   TIME STEP   28\n',
               '- \n',
               '- SOLVING FOR HEAD \n',
               '-\n',
               '- NO OUTPUT CONTROL FOR STRESS PERIOD   32   TIME STEP   29\n',
               '- \n',
               '- SOLVING FOR HEAD \n',
               '-\n',
               '- NO OUTPUT CONTROL FOR STRESS PERIOD   32   TIME STEP   30\n',
               '-\n',
               '-\n',
               '-\n',
               '- STREAM LISTING     PERIOD     32   STEP       30\n',
               '-\n',
               '- LAYER ROW COL. STREAM  RCH.   FLOW INTO    STREAM     FLOW '
               'OUT OF   OVRLND.    DIRECT     STREAM      STREAM      '
               'STREAM     STREAM  STREAMBED   FLOW TO   CHNG. UNSAT. \n',
               '-                SEG.NO.  NO.   STRM. RCH.    LOSS       STRM. '
               'RCH.   RUNOFF     PRECIP       ET         HEAD        '
               'DEPTH      WIDTH  CONDCTNC.   WAT. TAB.\n',
               '-\n',
               '-   1    4    1     1     1    6.2700E+00  2.0426E-03   '
               '6.2679E+00  0.000E+00  0.000E+00  0.000E+00  1.41746E+02  '
               '1.896E+00  4.081E+00  8.524E-04  2.065E-03 -2.273E-05\n',
               '-   1    4    2     1     2    6.2679E+00  2.0420E-03   '
               '6.2659E+00  0.000E+00  0.000E+00  0.000E+00  1.41446E+02  '
               '1.896E+00  4.081E+00  8.523E-04  2.065E-03 -2.292E-05\n',
               '-   1    4    3     1     3    6.2659E+00  2.0415E-03   '
               '6.2638E+00  0.000E+00  0.000E+00  0.000E+00  1.41146E+02  '
               '1.896E+00  4.080E+00  8.522E-04  2.065E-03 -2.311E-05\n',
               '-   1    4    4     1     4    6.2638E+00  2.0410E-03   '
               '6.2618E+00  0.000E+00  0.000E+00  0.000E+00  1.40845E+02  '
               '1.895E+00  4.080E+00  8.521E-04  2.064E-03 -2.327E-05\n',
               '-   1    4    5     1     5    6.2618E+00  2.0405E-03   '
               '6.2598E+00  0.000E+00  0.000E+00  0.000E+00  1.40545E+02  '
               '1.895E+00  4.080E+00  8.520E-04  2.064E-03 -2.342E-05\n',
               '-   1    4    6     1     6    6.2598E+00  2.0400E-03   '
               '6.2577E+00  0.000E+00  0.000E+00  0.000E+00  1.40245E+02  '
               '1.895E+00  4.079E+00  8.519E-04  2.064E-03 -2.356E-05\n',
               '-   1    4    7     1     7    6.2577E+00  2.0394E-03   '
               '6.2557E+00  0.000E+00  0.000E+00  0.000E+00  1.39944E+02  '
               '1.894E+00  4.079E+00  8.518E-04  2.063E-03 -2.368E-05\n',
               '-   1    4    8     1     8    6.2557E+00  2.0389E-03   '
               '6.2536E+00  0.000E+00  0.000E+00  0.000E+00  1.39644E+02  '
               '1.894E+00  4.078E+00  8.517E-04  2.063E-03 -2.378E-05\n',
               '-   1    4    9     1     9    6.2536E+00  2.0384E-03   '
               '6.2516E+00  0.000E+00  0.000E+00  0.000E+00  1.39344E+02  '
               '1.894E+00  4.078E+00  8.516E-04  2.062E-03 -2.386E-05\n',
               '-   1    4   10     1    10    6.2516E+00  2.0379E-03   '
               '6.2496E+00  0.000E+00  0.000E+00  0.000E+00  1.39043E+02  '
               '1.893E+00  4.078E+00  8.515E-04  2.062E-03 -2.393E-05\n',
               '-   1    4   11     1    11    6.2496E+00  2.0374E-03   '
               '6.2475E+00  0.000E+00  0.000E+00  0.000E+00  1.38743E+02  '
               '1.893E+00  4.077E+00  8.514E-04  2.061E-03 -2.398E-05\n',
               '-   1    4   12     1    12    6.2475E+00  2.0368E-03   '
               '6.2455E+00  0.000E+00  0.000E+00  0.000E+00  1.38443E+02  '
               '1.893E+00  4.077E+00  8.513E-04  2.061E-03 -2.402E-05\n',
               '-   1    4   13     1    13    6.2455E+00  2.0363E-03   '
               '6.2435E+00  0.000E+00  0.000E+00  0.000E+00  1.38142E+02  '
               '1.892E+00  4.077E+00  8.512E-04  2.060E-03 -2.404E-05\n',
               '-   1    4   14     1    14    6.2435E+00  2.0358E-03   '
               '6.2414E+00  0.000E+00  0.000E+00  0.000E+00  1.37842E+02  '
               '1.892E+00  4.076E+00  8.511E-04  2.060E-03 -2.390E-05\n',
               '-   1    4   15     1    15    6.2414E+00  2.0353E-03   '
               '6.2394E+00  0.000E+00  0.000E+00  0.000E+00  1.37542E+02  '
               '1.892E+00  4.076E+00  8.509E-04  2.057E-03 -2.136E-05\n',
               '-   1    4   16     1    16    6.2394E+00  2.0348E-03   '
               '6.2373E+00  0.000E+00  0.000E+00  0.000E+00  1.37241E+02  '
               '1.891E+00  4.075E+00  8.508E-04  2.054E-03 -1.885E-05\n',
               '-   1    4   17     1    17    6.2373E+00  2.0343E-03   '
               '6.2353E+00  0.000E+00  0.000E+00  0.000E+00  1.36941E+02  '
               '1.891E+00  4.075E+00  8.507E-04  2.051E-03 -1.639E-05\n',
               '-   1    4   18     1    18    6.2353E+00  2.0337E-03   '
               '6.2333E+00  0.000E+00  0.000E+00  0.000E+00  1.36641E+02  '
               '1.891E+00  4.075E+00  8.506E-04  2.048E-03 -1.396E-05\n',
               '-   1    4   19     1    19    6.2333E+00  2.0332E-03   '
               '6.2312E+00  0.000E+00  0.000E+00  0.000E+00  1.36340E+02  '
               '1.890E+00  4.074E+00  8.505E-04  2.046E-03 -1.266E-05\n',
               '-   1    4   20     1    20    6.2312E+00  2.0327E-03   '
               '6.2292E+00  0.000E+00  0.000E+00  0.000E+00  1.36040E+02  '
               '1.890E+00  4.074E+00  8.504E-04  2.045E-03 -1.261E-05\n',
               '-   1    4   21     1    21    6.2292E+00  2.0322E-03   '
               '6.2272E+00  0.000E+00  0.000E+00  0.000E+00  1.35740E+02  '
               '1.890E+00  4.074E+00  8.503E-04  2.045E-03 -1.254E-05\n',
               '-   1    4   22     1    22    6.2272E+00  2.0317E-03   '
               '6.2251E+00  0.000E+00  0.000E+00  0.000E+00  1.35439E+02  '
               '1.889E+00  4.073E+00  8.502E-04  2.044E-03 -1.247E-05\n',
               '-   1    4   23     1    23    6.2251E+00  2.0311E-03   '
               '6.2231E+00  0.000E+00  0.000E+00  0.000E+00  1.35139E+02  '
               '1.889E+00  4.073E+00  8.501E-04  2.044E-03 -1.239E-05\n',
               '-   1    4   24     1    24    6.2231E+00  2.0306E-03   '
               '6.2211E+00  0.000E+00  0.000E+00  0.000E+00  1.34839E+02  '
               '1.889E+00  4.072E+00  8.500E-04  2.043E-03 -1.228E-05\n',
               '-   1    4   25     1    25    6.2211E+00  2.0301E-03   '
               '6.2191E+00  0.000E+00  0.000E+00  0.000E+00  1.34539E+02  '
               '1.889E+00  4.072E+00  8.499E-04  2.042E-03 -1.217E-05\n',
               '-   1    4   26     1    26    6.2191E+00  2.0296E-03   '
               '6.2170E+00  0.000E+00  0.000E+00  0.000E+00  1.34238E+02  '
               '1.888E+00  4.072E+00  8.498E-04  2.042E-03 -1.204E-05\n',
               '-   1    4   27     1    27    6.2170E+00  2.0291E-03   '
               '6.2150E+00  0.000E+00  0.000E+00  0.000E+00  1.33938E+02  '
               '1.888E+00  4.071E+00  8.497E-04  2.041E-03 -1.189E-05\n',
               '-   1    4   28     1    28    6.2150E+00  2.0286E-03   '
               '6.2130E+00  0.000E+00  0.000E+00  0.000E+00  1.33638E+02  '
               '1.888E+00  4.071E+00  8.496E-04  2.039E-03 -9.948E-06\n',
               '-   1    4   29     1    29    6.2130E+00  2.0280E-03   '
               '6.2109E+00  0.000E+00  0.000E+00  0.000E+00  1.33337E+02  '
               '1.887E+00  4.070E+00  8.495E-04  2.032E-03 -3.701E-06\n',
               '-   1    4   30     1    30    6.2109E+00  2.0275E-03   '
               '6.2089E+00  0.000E+00  0.000E+00  0.000E+00  1.33037E+02  '
               '1.887E+00  4.070E+00  8.494E-04  2.031E-03 -3.568E-06\n',
               '-   1    4   31     1    31    6.2089E+00  2.0270E-03   '
               '6.2069E+00  0.000E+00  0.000E+00  0.000E+00  1.32737E+02  '
               '1.887E+00  4.070E+00  8.493E-04  2.030E-03 -3.420E-06\n',
               '-   1    4   32     1    32    6.2069E+00  2.0265E-03   '
               '6.2049E+00  0.000E+00  0.000E+00  0.000E+00  1.32436E+02  '
               '1.886E+00  4.069E+00  8.492E-04  2.030E-03 -3.264E-06\n',
               '-   1    4   33     1    33    6.2049E+00  2.0260E-03   '
               '6.2028E+00  0.000E+00  0.000E+00  0.000E+00  1.32136E+02  '
               '1.886E+00  4.069E+00  8.491E-04  2.029E-03 -3.101E-06\n',
               '-   1    4   34     1    34    6.2028E+00  2.0255E-03   '
               '6.2008E+00  0.000E+00  0.000E+00  0.000E+00  1.31836E+02  '
               '1.886E+00  4.069E+00  8.490E-04  2.028E-03 -2.931E-06\n',
               '-   1    4   35     1    35    6.2008E+00  2.0249E-03   '
               '6.1988E+00  0.000E+00  0.000E+00  0.000E+00  1.31535E+02  '
               '1.885E+00  4.068E+00  8.489E-04  2.028E-03 -2.754E-06\n',
               '-   1    4   36     1    36    6.1988E+00  2.0244E-03   '
               '6.1968E+00  0.000E+00  0.000E+00  0.000E+00  1.31235E+02  '
               '1.885E+00  4.068E+00  8.488E-04  2.027E-03 -2.571E-06\n',
               '-   1    4   37     1    37    6.1968E+00  2.0239E-03   '
               '6.1947E+00  0.000E+00  0.000E+00  0.000E+00  1.30935E+02  '
               '1.885E+00  4.067E+00  8.487E-04  2.026E-03 -2.381E-06\n',
               '-   1    4   38     1    38    6.1947E+00  2.0234E-03   '
               '6.1927E+00  0.000E+00  0.000E+00  0.000E+00  1.30634E+02  '
               '1.884E+00  4.067E+00  8.486E-04  2.026E-03 -2.185E-06\n',
               '-   1    4   39     1    39    6.1927E+00  2.0229E-03   '
               '6.1907E+00  0.000E+00  0.000E+00  0.000E+00  1.30334E+02  '
               '1.884E+00  4.067E+00  8.485E-04  2.025E-03 -1.987E-06\n',
               '-   1    4   40     1    40    6.1907E+00  2.0224E-03   '
               '6.1887E+00  0.000E+00  0.000E+00  0.000E+00  1.30034E+02  '
               '1.884E+00  4.066E+00  8.484E-04  2.024E-03 -1.784E-06\n',
               '-   1    4   41     1    41    6.1887E+00  2.0219E-03   '
               '6.1866E+00  0.000E+00  0.000E+00  0.000E+00  1.29733E+02  '
               '1.883E+00  4.066E+00  8.483E-04  2.023E-03 -1.578E-06\n',
               '-   1    4   42     1    42    6.1866E+00  2.0213E-03   '
               '6.1846E+00  0.000E+00  0.000E+00  0.000E+00  1.29433E+02  '
               '1.883E+00  4.066E+00  8.482E-04  2.023E-03 -1.368E-06\n',
               '-   1    4   43     1    43    6.1846E+00  2.0208E-03   '
               '6.1826E+00  0.000E+00  0.000E+00  0.000E+00  1.29133E+02  '
               '1.883E+00  4.065E+00  8.480E-04  2.022E-03 -1.159E-06\n',
               '-   1    4   44     1    44    6.1826E+00  2.0203E-03   '
               '6.1806E+00  0.000E+00  0.000E+00  0.000E+00  1.28833E+02  '
               '1.883E+00  4.065E+00  8.479E-04  2.021E-03 -9.483E-07\n',
               '-   1    4   45     1    45    6.1806E+00  2.0198E-03   '
               '6.1786E+00  0.000E+00  0.000E+00  0.000E+00  1.28532E+02  '
               '1.882E+00  4.064E+00  8.478E-04  2.021E-03 -7.395E-07\n',
               '-   1    4   46     1    46    6.1786E+00  2.0193E-03   '
               '6.1765E+00  0.000E+00  0.000E+00  0.000E+00  1.28232E+02  '
               '1.882E+00  4.064E+00  8.477E-04  2.020E-03 -5.318E-07\n',
               '-   1    4   47     1    47    6.1765E+00  2.0188E-03   '
               '6.1745E+00  0.000E+00  0.000E+00  0.000E+00  1.27932E+02  '
               '1.882E+00  4.064E+00  8.476E-04  2.019E-03 -3.248E-07\n',
               '-   1    4   48     1    48    6.1745E+00  2.0182E-03   '
               '6.1725E+00  0.000E+00  0.000E+00  0.000E+00  1.27631E+02  '
               '1.881E+00  4.063E+00  8.475E-04  2.018E-03 -1.212E-07\n',
               '-   1    4   49     1    49    6.1725E+00  2.0177E-03   '
               '6.1705E+00  0.000E+00  0.000E+00  0.000E+00  1.27331E+02  '
               '1.881E+00  4.063E+00  8.474E-04  2.018E-03  8.122E-08\n',
               '-   1    4   50     1    50    6.1705E+00  2.0172E-03   '
               '6.1685E+00  0.000E+00  0.000E+00  0.000E+00  1.27031E+02  '
               '1.881E+00  4.063E+00  8.473E-04  2.017E-03  2.774E-07\n',
               '-   1    4   51     1    51    6.1685E+00  2.0167E-03   '
               '6.1665E+00  0.000E+00  0.000E+00  0.000E+00  1.26730E+02  '
               '1.880E+00  4.062E+00  8.472E-04  2.016E-03  4.673E-07\n',
               '-   1    4   52     1    52    6.1665E+00  2.0162E-03   '
               '6.1644E+00  0.000E+00  0.000E+00  0.000E+00  1.26430E+02  '
               '1.880E+00  4.062E+00  8.471E-04  2.016E-03  6.492E-07\n',
               '-   1    4   53     1    53    6.1644E+00  2.0157E-03   '
               '6.1624E+00  0.000E+00  0.000E+00  0.000E+00  1.26130E+02  '
               '1.880E+00  4.061E+00  8.470E-04  2.015E-03  8.241E-07\n',
               '-   1    4   54     1    54    6.1624E+00  2.0152E-03   '
               '6.1604E+00  0.000E+00  0.000E+00  0.000E+00  1.25829E+02  '
               '1.879E+00  4.061E+00  8.469E-04  2.014E-03  9.897E-07\n',
               '-   1    4   55     1    55    6.1604E+00  2.0146E-03   '
               '6.1584E+00  0.000E+00  0.000E+00  0.000E+00  1.25529E+02  '
               '1.879E+00  4.061E+00  8.468E-04  2.014E-03  1.145E-06\n',
               '-   1    4   56     1    56    6.1584E+00  2.0141E-03   '
               '6.1564E+00  0.000E+00  0.000E+00  0.000E+00  1.25229E+02  '
               '1.879E+00  4.060E+00  8.467E-04  2.013E-03  1.289E-06\n',
               '-   1    4   57     1    57    6.1564E+00  2.0136E-03   '
               '6.1544E+00  0.000E+00  0.000E+00  0.000E+00  1.24928E+02  '
               '1.878E+00  4.060E+00  8.466E-04  2.012E-03  1.421E-06\n',
               '-   1    4   58     1    58    6.1544E+00  2.0131E-03   '
               '6.1524E+00  0.000E+00  0.000E+00  0.000E+00  1.24628E+02  '
               '1.878E+00  4.059E+00  8.465E-04  2.012E-03  1.539E-06\n',
               '-   1    4   59     1    59    6.1524E+00  2.0126E-03   '
               '6.1503E+00  0.000E+00  0.000E+00  0.000E+00  1.24328E+02  '
               '1.878E+00  4.059E+00  8.464E-04  2.011E-03  1.640E-06\n',
               '-   1    4   60     1    60    6.1503E+00  2.0121E-03   '
               '6.1483E+00  0.000E+00  0.000E+00  0.000E+00  1.24027E+02  '
               '1.877E+00  4.059E+00  8.463E-04  2.010E-03  1.726E-06\n',
               '-   1    4   61     1    61    6.1483E+00  2.0116E-03   '
               '6.1463E+00  0.000E+00  0.000E+00  0.000E+00  1.23727E+02  '
               '1.877E+00  4.058E+00  8.462E-04  2.010E-03  1.792E-06\n',
               '-   1    4   62     1    62    6.1463E+00  2.0111E-03   '
               '6.1443E+00  0.000E+00  0.000E+00  0.000E+00  1.23427E+02  '
               '1.877E+00  4.058E+00  8.461E-04  2.009E-03  1.838E-06\n',
               '-   1    4   63     1    63    6.1443E+00  2.0105E-03   '
               '6.1423E+00  0.000E+00  0.000E+00  0.000E+00  1.23127E+02  '
               '1.877E+00  4.058E+00  8.460E-04  2.009E-03  1.866E-06\n',
               '-   1    4   64     1    64    6.1423E+00  2.0100E-03   '
               '6.1403E+00  0.000E+00  0.000E+00  0.000E+00  1.22826E+02  '
               '1.876E+00  4.057E+00  8.459E-04  2.008E-03  1.871E-06\n',
               '-   1    4   65     1    65    6.1403E+00  2.0095E-03   '
               '6.1383E+00  0.000E+00  0.000E+00  0.000E+00  1.22526E+02  '
               '1.876E+00  4.057E+00  8.458E-04  2.008E-03  1.851E-06\n',
               '-   1    4   66     1    66    6.1383E+00  2.0090E-03   '
               '6.1363E+00  0.000E+00  0.000E+00  0.000E+00  1.22226E+02  '
               '1.876E+00  4.056E+00  8.457E-04  2.007E-03  1.807E-06\n',
               '-   1    4   67     1    67    6.1363E+00  2.0085E-03   '
               '6.1343E+00  0.000E+00  0.000E+00  0.000E+00  1.21925E+02  '
               '1.875E+00  4.056E+00  8.456E-04  2.007E-03  1.737E-06\n',
               '-   1    4   68     1    68    6.1343E+00  2.0080E-03   '
               '6.1323E+00  0.000E+00  0.000E+00  0.000E+00  1.21625E+02  '
               '1.875E+00  4.056E+00  8.455E-04  2.006E-03  1.650E-06\n',
               '-   1    4   69     1    69    6.1323E+00  2.0075E-03   '
               '6.1302E+00  0.000E+00  0.000E+00  0.000E+00  1.21325E+02  '
               '1.875E+00  4.055E+00  8.454E-04  2.013E-03 -5.450E-06\n',
               '-   1    4   70     1    70    6.1302E+00  2.0070E-03   '
               '6.1282E+00  0.000E+00  0.000E+00  0.000E+00  1.21024E+02  '
               '1.874E+00  4.055E+00  8.453E-04  2.013E-03 -5.599E-06\n',
               '-   1    4   71     1    71    6.1282E+00  2.0064E-03   '
               '6.1262E+00  0.000E+00  0.000E+00  0.000E+00  1.20724E+02  '
               '1.874E+00  4.055E+00  8.452E-04  2.012E-03 -5.777E-06\n',
               '-   1    4   72     1    72    6.1262E+00  2.0059E-03   '
               '6.1242E+00  0.000E+00  0.000E+00  0.000E+00  1.20424E+02  '
               '1.874E+00  4.054E+00  8.451E-04  2.012E-03 -6.560E-06\n',
               '-   1    4   73     1    73    6.1242E+00  2.0054E-03   '
               '6.1222E+00  0.000E+00  0.000E+00  0.000E+00  1.20123E+02  '
               '1.873E+00  4.054E+00  8.449E-04  2.016E-03 -1.044E-05\n',
               '-   1    4   74     1    74    6.1222E+00  2.0049E-03   '
               '6.1202E+00  0.000E+00  0.000E+00  0.000E+00  1.19823E+02  '
               '1.873E+00  4.053E+00  8.448E-04  2.019E-03 -1.455E-05\n',
               '-   1    4   75     1    75    6.1202E+00  2.0044E-03   '
               '6.1182E+00  0.000E+00  0.000E+00  0.000E+00  1.19523E+02  '
               '1.873E+00  4.053E+00  8.447E-04  2.021E-03 -1.692E-05\n',
               '-   1    4   76     1    76    6.1182E+00  2.0039E-03   '
               '6.1162E+00  0.000E+00  0.000E+00  0.000E+00  1.19222E+02  '
               '1.872E+00  4.053E+00  8.446E-04  2.021E-03 -1.726E-05\n',
               '-   1    4   77     1    77    6.1162E+00  2.0034E-03   '
               '6.1142E+00  0.000E+00  0.000E+00  0.000E+00  1.18922E+02  '
               '1.872E+00  4.052E+00  8.445E-04  2.021E-03 -1.763E-05\n',
               '-   1    4   78     1    78    6.1142E+00  2.0029E-03   '
               '6.1122E+00  0.000E+00  0.000E+00  0.000E+00  1.18622E+02  '
               '1.872E+00  4.052E+00  8.444E-04  2.021E-03 -1.804E-05\n',
               '-   1    4   79     1    79    6.1122E+00  2.0023E-03   '
               '6.1102E+00  0.000E+00  0.000E+00  0.000E+00  1.18321E+02  '
               '1.871E+00  4.052E+00  8.443E-04  2.021E-03 -1.848E-05\n',
               '-   1    4   80     1    80    6.1102E+00  2.0018E-03   '
               '6.1082E+00  0.000E+00  0.000E+00  0.000E+00  1.18021E+02  '
               '1.871E+00  4.051E+00  8.442E-04  2.021E-03 -1.895E-05\n',
               '-   1    4   81     1    81    6.1082E+00  2.0013E-03   '
               '6.1062E+00  0.000E+00  0.000E+00  0.000E+00  1.17721E+02  '
               '1.871E+00  4.051E+00  8.441E-04  2.021E-03 -1.945E-05\n',
               '-   1    4   82     1    82    6.1062E+00  2.0008E-03   '
               '6.1042E+00  0.000E+00  0.000E+00  0.000E+00  1.17421E+02  '
               '1.870E+00  4.050E+00  8.440E-04  2.021E-03 -1.998E-05\n',
               '-   1    4   83     1    83    6.1042E+00  2.0003E-03   '
               '6.1022E+00  0.000E+00  0.000E+00  0.000E+00  1.17120E+02  '
               '1.870E+00  4.050E+00  8.439E-04  2.021E-03 -2.055E-05\n',
               '-   1    4   84     1    84    6.1022E+00  1.9998E-03   '
               '6.1002E+00  0.000E+00  0.000E+00  0.000E+00  1.16820E+02  '
               '1.870E+00  4.050E+00  8.438E-04  2.021E-03 -2.113E-05\n',
               '-   1    4   85     1    85    6.1002E+00  1.9993E-03   '
               '6.0982E+00  0.000E+00  0.000E+00  0.000E+00  1.16520E+02  '
               '1.870E+00  4.049E+00  8.437E-04  2.021E-03 -2.174E-05\n',
               '-   1    4   86     1    86    6.0982E+00  1.9988E-03   '
               '6.0962E+00  0.000E+00  0.000E+00  0.000E+00  1.16219E+02  '
               '1.869E+00  4.049E+00  8.436E-04  2.026E-03 -2.677E-05\n',
               '-   1    4   87     1    87    6.0962E+00  1.9983E-03   '
               '6.0942E+00  0.000E+00  0.000E+00  0.000E+00  1.15919E+02  '
               '1.869E+00  4.049E+00  8.435E-04  2.032E-03 -3.362E-05\n',
               '-   1    4   88     1    88    6.0942E+00  1.9978E-03   '
               '6.0922E+00  0.000E+00  0.000E+00  0.000E+00  1.15619E+02  '
               '1.869E+00  4.048E+00  8.434E-04  2.034E-03 -3.602E-05\n',
               '-   1    4   89     1    89    6.0922E+00  1.9972E-03   '
               '6.0902E+00  0.000E+00  0.000E+00  0.000E+00  1.15318E+02  '
               '1.868E+00  4.048E+00  8.433E-04  2.034E-03 -3.674E-05\n',
               '-   1    4   90     1    90    6.0902E+00  1.9967E-03   '
               '6.0882E+00  0.000E+00  0.000E+00  0.000E+00  1.15018E+02  '
               '1.868E+00  4.047E+00  8.432E-04  2.034E-03 -3.747E-05\n',
               '-   1    4   91     1    91    6.0882E+00  1.9962E-03   '
               '6.0862E+00  0.000E+00  0.000E+00  0.000E+00  1.14718E+02  '
               '1.868E+00  4.047E+00  8.431E-04  2.034E-03 -3.821E-05\n',
               '-   1    4   92     1    92    6.0862E+00  1.9957E-03   '
               '6.0842E+00  0.000E+00  0.000E+00  0.000E+00  1.14417E+02  '
               '1.867E+00  4.047E+00  8.430E-04  2.035E-03 -3.895E-05\n',
               '-   1    4   93     1    93    6.0842E+00  1.9952E-03   '
               '6.0822E+00  0.000E+00  0.000E+00  0.000E+00  1.14117E+02  '
               '1.867E+00  4.046E+00  8.429E-04  2.035E-03 -3.969E-05\n',
               '-   1    4   94     1    94    6.0822E+00  1.9947E-03   '
               '6.0802E+00  0.000E+00  0.000E+00  0.000E+00  1.13817E+02  '
               '1.867E+00  4.046E+00  8.428E-04  2.035E-03 -4.040E-05\n',
               '-   1    4   95     1    95    6.0802E+00  1.9942E-03   '
               '6.0782E+00  0.000E+00  0.000E+00  0.000E+00  1.13516E+02  '
               '1.866E+00  4.046E+00  8.427E-04  2.046E-03 -5.196E-05\n',
               '-   1    4   96     1    96    6.0782E+00  1.9937E-03   '
               '6.0762E+00  0.000E+00  0.000E+00  0.000E+00  1.13216E+02  '
               '1.866E+00  4.045E+00  8.426E-04  2.054E-03 -6.048E-05\n',
               '-   1    4   97     1    97    6.0762E+00  1.9932E-03   '
               '6.0742E+00  0.000E+00  0.000E+00  0.000E+00  1.12916E+02  '
               '1.866E+00  4.045E+00  8.425E-04  2.057E-03 -6.399E-05\n',
               '-   1    4   98     1    98    6.0742E+00  1.9927E-03   '
               '6.0722E+00  0.000E+00  0.000E+00  0.000E+00  1.12615E+02  '
               '1.865E+00  4.044E+00  8.424E-04  2.057E-03 -6.473E-05\n',
               '-   1    4   99     1    99    6.0722E+00  1.9921E-03   '
               '6.0703E+00  0.000E+00  0.000E+00  0.000E+00  1.12315E+02  '
               '1.865E+00  4.044E+00  8.423E-04  2.058E-03 -6.548E-05\n',
               '-   1    4  100     1   100    6.0703E+00  1.9916E-03   '
               '6.0683E+00  0.000E+00  0.000E+00  0.000E+00  1.12015E+02  '
               '1.865E+00  4.044E+00  8.422E-04  2.058E-03 -6.624E-05\n',
               '-\n',
               '-\n',
               '-\n',
               '-1\n',
               '-  VOLUMETRIC BUDGET FOR UNSATURATED ZONE BENEATH STREAMS AT '
               'END OF TIME STEP    30 STRESS PERIOD  32\n',
               '-  '
               '------------------------------------------------------------------------------------------------\n',
               '-\n',
               '-    CUMULATIVE VOLUMES             L**3    RATES FOR THIS '
               'TIME STEP         L**3/T\n',
               '-    ------------------                     '
               '------------------------\n',
               '-\n',
               '-\n',
               '-          STREAM LOSS =     29849132.0000            STREAM '
               'LOSS =            0.2017\n',
               '-    CHANGE IN STORAGE =       420497.5000      CHANGE IN '
               'STORAGE =       -1.4949E-03\n',
               '-       RECHARGE TO GW =     29432774.0000         RECHARGE TO '
               'GW =            0.2032\n',
               '-\n',
               '-             TOTAL IN =     29849132.0000               TOTAL '
               'IN =            0.2032\n',
               '-\n',
               '-            TOTAL OUT =     29853272.0000              TOTAL '
               'OUT =            0.2032\n',
               '-\n',
               '-             IN - OUT =        -4140.0000               IN - '
               'OUT =        2.9802E-08\n',
               '-\n',
               '-  PERCENT DISCREPANCY =           -0.00      PERCENT '
               'DISCREPANCY =             0.00\n',
               '-\n',
               '-\n',
               '-\n',
               '-1\n',
               '-  VOLUMETRIC BUDGET FOR ENTIRE MODEL AT END OF TIME STEP   '
               '30, STRESS PERIOD  32\n',
               '-  '
               '------------------------------------------------------------------------------\n',
               '-\n',
               '-     CUMULATIVE VOLUMES      L**3       RATES FOR THIS TIME '
               'STEP      L**3/T\n',
               '-     ------------------                 '
               '------------------------\n',
               '-\n',
               '-           IN:                                      IN:\n',
               '-           ---                                      ---\n',
               '-             STORAGE =    13780053.0000               STORAGE '
               '=       4.3825E-02\n',
               '-       CONSTANT HEAD =           0.0000         CONSTANT HEAD '
               '=           0.0000\n',
               '-     HEAD DEP BOUNDS =           0.0000       HEAD DEP BOUNDS '
               '=           0.0000\n',
               '-      STREAM LEAKAGE =    29432722.0000        STREAM LEAKAGE '
               '=           0.2032\n',
               '-\n',
               '-            TOTAL IN =    43212776.0000              TOTAL IN '
               '=           0.2470\n',
               '-\n',
               '-          OUT:                                     OUT:\n',
               '-          ----                                     ----\n',
               '-             STORAGE =    15939354.0000               STORAGE '
               '=       2.5473E-02\n',
               '-       CONSTANT HEAD =           0.0000         CONSTANT HEAD '
               '=           0.0000\n',
               '-     HEAD DEP BOUNDS =    27273264.0000       HEAD DEP BOUNDS '
               '=           0.2215\n',
               '-      STREAM LEAKAGE =           0.0000        STREAM LEAKAGE '
               '=           0.0000\n',
               '-\n',
               '-           TOTAL OUT =    43212616.0000             TOTAL OUT '
               '=           0.2470\n',
               '-\n',
               '-            IN - OUT =         160.0000              IN - OUT '
               '=       1.9535E-05\n',
               '-\n',
               '- PERCENT DISCREPANCY =           0.00     PERCENT DISCREPANCY '
               '=           0.01\n',
               '-\n',
               '-\n',
               '-\n',
               '-\n',
               '-\n',
               '-\n',
               '-         TIME SUMMARY AT END OF TIME STEP   30 IN STRESS '
               'PERIOD   32\n',
               '-                    SECONDS     MINUTES      HOURS       '
               'DAYS        YEARS\n',
               '-                    '
               '-----------------------------------------------------------\n',
               '-   TIME STEP LENGTH 2.49961E+05  4166.0      69.434      '
               '2.8931     7.92080E-03\n',
               '- STRESS PERIOD TIME 2.59200E+06  43200.      720.00      '
               '30.000     8.21355E-02\n',
               '-         TOTAL TIME 8.29440E+07 1.38240E+06  23040.      '
               '960.00      2.6283    \n',
               '-1\n',
               '-1\n',
               '-                            STRESS PERIOD NO.   33, LENGTH '
               '=   2592000.    \n',
               '-                            '
               '-----------------------------------------------\n',
               '-\n',
               '-                              NUMBER OF TIME STEPS =    30\n',
               '-\n',
               '-                               MULTIPLIER FOR DELT =     '
               '1.100\n',
               '-\n',
               '-                            INITIAL TIME STEP SIZE =   '
               '15757.40    \n',
               '-\n',
               '- REUSING NON-PARAMETER GHB CELLS FROM LAST STRESS PERIOD\n',
               '-\n',
               '-      7 GHB CELLS\n',
               '- \n',
               '- SOLVING FOR HEAD \n',
               '-\n',
               '- NO OUTPUT CONTROL FOR STRESS PERIOD   33   TIME STEP    1\n',
               '- \n',
               '- SOLVING FOR HEAD \n',
               '-\n',
               '- NO OUTPUT CONTROL FOR STRESS PERIOD   33   TIME STEP    2\n',
               '- \n',
               '- SOLVING FOR HEAD \n',
               '-\n',
               '- NO OUTPUT CONTROL FOR STRESS PERIOD   33   TIME STEP    3\n',
               '- \n',
               '- SOLVING FOR HEAD \n',
               '-\n',
               '- NO OUTPUT CONTROL FOR STRESS PERIOD   33   TIME STEP    4\n',
               '- \n',
               '- SOLVING FOR HEAD \n',
               '-\n',
               '- NO OUTPUT CONTROL FOR STRESS PERIOD   33   TIME STEP    5\n',
               '- \n',
               '- SOLVING FOR HEAD \n',
               '-\n',
               '- NO OUTPUT CONTROL FOR STRESS PERIOD   33   TIME STEP    6\n',
               '- \n',
               '- SOLVING FOR HEAD \n',
               '-\n',
               '- NO OUTPUT CONTROL FOR STRESS PERIOD   33   TIME STEP    7\n',
               '- \n',
               '- SOLVING FOR HEAD \n',
               '-\n',
               '- NO OUTPUT CONTROL FOR STRESS PERIOD   33   TIME STEP    8\n',
               '- \n',
               '- SOLVING FOR HEAD \n',
               '-\n',
               '- NO OUTPUT CONTROL FOR STRESS PERIOD   33   TIME STEP    9\n',
               '- \n',
               '- SOLVING FOR HEAD \n',
               '-\n',
               '- NO OUTPUT CONTROL FOR STRESS PERIOD   33   TIME STEP   10\n',
               '- \n',
               '- SOLVING FOR HEAD \n',
               '-\n',
               '- NO OUTPUT CONTROL FOR STRESS PERIOD   33   TIME STEP   11\n',
               '- \n',
               '- SOLVING FOR HEAD \n',
               '-\n',
               '- NO OUTPUT CONTROL FOR STRESS PERIOD   33   TIME STEP   12\n',
               '- \n',
               '- SOLVING FOR HEAD \n',
               '-\n',
               '- NO OUTPUT CONTROL FOR STRESS PERIOD   33   TIME STEP   13\n',
               '- \n',
               '- SOLVING FOR HEAD \n',
               '-\n',
               '- NO OUTPUT CONTROL FOR STRESS PERIOD   33   TIME STEP   14\n',
               '- \n',
               '- SOLVING FOR HEAD \n',
               '-\n',
               '- NO OUTPUT CONTROL FOR STRESS PERIOD   33   TIME STEP   15\n',
               '- \n',
               '- SOLVING FOR HEAD \n',
               '-\n',
               '- NO OUTPUT CONTROL FOR STRESS PERIOD   33   TIME STEP   16\n',
               '- \n',
               '- SOLVING FOR HEAD \n',
               '-\n',
               '- NO OUTPUT CONTROL FOR STRESS PERIOD   33   TIME STEP   17\n',
               '- \n',
               '- SOLVING FOR HEAD \n',
               '-\n',
               '- NO OUTPUT CONTROL FOR STRESS PERIOD   33   TIME STEP   18\n',
               '- \n',
               '- SOLVING FOR HEAD \n',
               '-\n',
               '- NO OUTPUT CONTROL FOR STRESS PERIOD   33   TIME STEP   19\n',
               '- \n',
               '- SOLVING FOR HEAD \n',
               '-\n',
               '- NO OUTPUT CONTROL FOR STRESS PERIOD   33   TIME STEP   20\n',
               '- \n',
               '- SOLVING FOR HEAD \n',
               '-\n',
               '- NO OUTPUT CONTROL FOR STRESS PERIOD   33   TIME STEP   21\n',
               '- \n',
               '- SOLVING FOR HEAD \n',
               '-\n',
               '- NO OUTPUT CONTROL FOR STRESS PERIOD   33   TIME STEP   22\n',
               '- \n',
               '- SOLVING FOR HEAD \n',
               '-\n',
               '- NO OUTPUT CONTROL FOR STRESS PERIOD   33   TIME STEP   23\n',
               '- \n',
               '- SOLVING FOR HEAD \n',
               '-\n',
               '- NO OUTPUT CONTROL FOR STRESS PERIOD   33   TIME STEP   24\n',
               '- \n',
               '- SOLVING FOR HEAD \n',
               '-\n',
               '- NO OUTPUT CONTROL FOR STRESS PERIOD   33   TIME STEP   25\n',
               '- \n',
               '- SOLVING FOR HEAD \n',
               '-\n',
               '- NO OUTPUT CONTROL FOR STRESS PERIOD   33   TIME STEP   26\n',
               '- \n',
               '- SOLVING FOR HEAD \n',
               '-\n',
               '- NO OUTPUT CONTROL FOR STRESS PERIOD   33   TIME STEP   27\n',
               '- \n',
               '- SOLVING FOR HEAD \n',
               '-\n',
               '- NO OUTPUT CONTROL FOR STRESS PERIOD   33   TIME STEP   28\n',
               '- \n',
               '- SOLVING FOR HEAD \n',
               '-\n',
               '- NO OUTPUT CONTROL FOR STRESS PERIOD   33   TIME STEP   29\n',
               '- \n',
               '- SOLVING FOR HEAD \n',
               '-\n',
               '- NO OUTPUT CONTROL FOR STRESS PERIOD   33   TIME STEP   30\n',
               '-\n',
               '-\n',
               '-\n',
               '- STREAM LISTING     PERIOD     33   STEP       30\n',
               '-\n',
               '- LAYER ROW COL. STREAM  RCH.   FLOW INTO    STREAM     FLOW '
               'OUT OF   OVRLND.    DIRECT     STREAM      STREAM      '
               'STREAM     STREAM  STREAMBED   FLOW TO   CHNG. UNSAT. \n',
               '-                SEG.NO.  NO.   STRM. RCH.    LOSS       STRM. '
               'RCH.   RUNOFF     PRECIP       ET         HEAD        '
               'DEPTH      WIDTH  CONDCTNC.   WAT. TAB.\n',
               '-\n',
               '-   1    4    1     1     1    2.0700E+00  9.1388E-04   '
               '2.0691E+00  0.000E+00  0.000E+00  0.000E+00  1.40918E+02  '
               '1.068E+00  3.091E+00  5.822E-04  9.479E-04 -3.399E-05\n',
               '-   1    4    2     1     2    2.0691E+00  9.1361E-04   '
               '2.0682E+00  0.000E+00  0.000E+00  0.000E+00  1.40618E+02  '
               '1.068E+00  3.090E+00  5.822E-04  9.476E-04 -3.394E-05\n',
               '-   1    4    3     1     3    2.0682E+00  9.1335E-04   '
               '2.0672E+00  0.000E+00  0.000E+00  0.000E+00  1.40318E+02  '
               '1.068E+00  3.090E+00  5.821E-04  9.472E-04 -3.387E-05\n',
               '-   1    4    4     1     4    2.0672E+00  9.1308E-04   '
               '2.0663E+00  0.000E+00  0.000E+00  0.000E+00  1.40018E+02  '
               '1.068E+00  3.090E+00  5.820E-04  9.469E-04 -3.380E-05\n',
               '-   1    4    5     1     5    2.0663E+00  9.1282E-04   '
               '2.0654E+00  0.000E+00  0.000E+00  0.000E+00  1.39717E+02  '
               '1.067E+00  3.090E+00  5.819E-04  9.465E-04 -3.371E-05\n',
               '-   1    4    6     1     6    2.0654E+00  9.1255E-04   '
               '2.0645E+00  0.000E+00  0.000E+00  0.000E+00  1.39417E+02  '
               '1.067E+00  3.089E+00  5.818E-04  9.462E-04 -3.361E-05\n',
               '-   1    4    7     1     7    2.0645E+00  9.1229E-04   '
               '2.0636E+00  0.000E+00  0.000E+00  0.000E+00  1.39117E+02  '
               '1.067E+00  3.089E+00  5.818E-04  9.458E-04 -3.350E-05\n',
               '-   1    4    8     1     8    2.0636E+00  9.1202E-04   '
               '2.0627E+00  0.000E+00  0.000E+00  0.000E+00  1.38817E+02  '
               '1.067E+00  3.089E+00  5.817E-04  9.454E-04 -3.337E-05\n',
               '-   1    4    9     1     9    2.0627E+00  9.1176E-04   '
               '2.0618E+00  0.000E+00  0.000E+00  0.000E+00  1.38516E+02  '
               '1.066E+00  3.088E+00  5.816E-04  9.436E-04 -3.182E-05\n',
               '-   1    4   10     1    10    2.0618E+00  9.1149E-04   '
               '2.0609E+00  0.000E+00  0.000E+00  0.000E+00  1.38216E+02  '
               '1.066E+00  3.088E+00  5.815E-04  9.403E-04 -2.875E-05\n',
               '-   1    4   11     1    11    2.0609E+00  9.1123E-04   '
               '2.0600E+00  0.000E+00  0.000E+00  0.000E+00  1.37916E+02  '
               '1.066E+00  3.088E+00  5.815E-04  9.370E-04 -2.571E-05\n',
               '-   1    4   12     1    12    2.0600E+00  9.1096E-04   '
               '2.0590E+00  0.000E+00  0.000E+00  0.000E+00  1.37616E+02  '
               '1.066E+00  3.087E+00  5.814E-04  9.352E-04 -2.425E-05\n',
               '-   1    4   13     1    13    2.0590E+00  9.1070E-04   '
               '2.0581E+00  0.000E+00  0.000E+00  0.000E+00  1.37315E+02  '
               '1.065E+00  3.087E+00  5.813E-04  9.348E-04 -2.408E-05\n',
               '-   1    4   14     1    14    2.0581E+00  9.1043E-04   '
               '2.0572E+00  0.000E+00  0.000E+00  0.000E+00  1.37015E+02  '
               '1.065E+00  3.087E+00  5.812E-04  9.344E-04 -2.390E-05\n',
               '-   1    4   15     1    15    2.0572E+00  9.1017E-04   '
               '2.0563E+00  0.000E+00  0.000E+00  0.000E+00  1.36715E+02  '
               '1.065E+00  3.087E+00  5.811E-04  9.339E-04 -2.370E-05\n',
               '-   1    4   16     1    16    2.0563E+00  9.0990E-04   '
               '2.0554E+00  0.000E+00  0.000E+00  0.000E+00  1.36415E+02  '
               '1.065E+00  3.086E+00  5.811E-04  9.334E-04 -2.349E-05\n',
               '-   1    4   17     1    17    2.0554E+00  9.0964E-04   '
               '2.0545E+00  0.000E+00  0.000E+00  0.000E+00  1.36114E+02  '
               '1.064E+00  3.086E+00  5.810E-04  9.329E-04 -2.326E-05\n',
               '-   1    4   18     1    18    2.0545E+00  9.0938E-04   '
               '2.0536E+00  0.000E+00  0.000E+00  0.000E+00  1.35814E+02  '
               '1.064E+00  3.086E+00  5.809E-04  9.324E-04 -2.302E-05\n',
               '-   1    4   19     1    19    2.0536E+00  9.0911E-04   '
               '2.0527E+00  0.000E+00  0.000E+00  0.000E+00  1.35514E+02  '
               '1.064E+00  3.085E+00  5.808E-04  9.319E-04 -2.276E-05\n',
               '-   1    4   20     1    20    2.0527E+00  9.0885E-04   '
               '2.0518E+00  0.000E+00  0.000E+00  0.000E+00  1.35214E+02  '
               '1.064E+00  3.085E+00  5.807E-04  9.314E-04 -2.249E-05\n',
               '-   1    4   21     1    21    2.0518E+00  9.0858E-04   '
               '2.0509E+00  0.000E+00  0.000E+00  0.000E+00  1.34913E+02  '
               '1.063E+00  3.085E+00  5.807E-04  9.255E-04 -1.694E-05\n',
               '-   1    4   22     1    22    2.0509E+00  9.0832E-04   '
               '2.0499E+00  0.000E+00  0.000E+00  0.000E+00  1.34613E+02  '
               '1.063E+00  3.085E+00  5.806E-04  9.229E-04 -1.457E-05\n',
               '-   1    4   23     1    23    2.0499E+00  9.0806E-04   '
               '2.0490E+00  0.000E+00  0.000E+00  0.000E+00  1.34313E+02  '
               '1.063E+00  3.084E+00  5.805E-04  9.224E-04 -1.430E-05\n',
               '-   1    4   24     1    24    2.0490E+00  9.0779E-04   '
               '2.0481E+00  0.000E+00  0.000E+00  0.000E+00  1.34013E+02  '
               '1.063E+00  3.084E+00  5.804E-04  9.218E-04 -1.403E-05\n',
               '-   1    4   25     1    25    2.0481E+00  9.0753E-04   '
               '2.0472E+00  0.000E+00  0.000E+00  0.000E+00  1.33713E+02  '
               '1.063E+00  3.084E+00  5.803E-04  9.213E-04 -1.374E-05\n',
               '-   1    4   26     1    26    2.0472E+00  9.0726E-04   '
               '2.0463E+00  0.000E+00  0.000E+00  0.000E+00  1.33412E+02  '
               '1.062E+00  3.083E+00  5.803E-04  9.207E-04 -1.345E-05\n',
               '-   1    4   27     1    27    2.0463E+00  9.0700E-04   '
               '2.0454E+00  0.000E+00  0.000E+00  0.000E+00  1.33112E+02  '
               '1.062E+00  3.083E+00  5.802E-04  9.202E-04 -1.315E-05\n',
               '-   1    4   28     1    28    2.0454E+00  9.0674E-04   '
               '2.0445E+00  0.000E+00  0.000E+00  0.000E+00  1.32812E+02  '
               '1.062E+00  3.083E+00  5.801E-04  9.196E-04 -1.283E-05\n',
               '-   1    4   29     1    29    2.0445E+00  9.0647E-04   '
               '2.0436E+00  0.000E+00  0.000E+00  0.000E+00  1.32512E+02  '
               '1.062E+00  3.083E+00  5.800E-04  9.190E-04 -1.252E-05\n',
               '-   1    4   30     1    30    2.0436E+00  9.0621E-04   '
               '2.0427E+00  0.000E+00  0.000E+00  0.000E+00  1.32211E+02  '
               '1.061E+00  3.082E+00  5.800E-04  9.184E-04 -1.219E-05\n',
               '-   1    4   31     1    31    2.0427E+00  9.0595E-04   '
               '2.0418E+00  0.000E+00  0.000E+00  0.000E+00  1.31911E+02  '
               '1.061E+00  3.082E+00  5.799E-04  9.178E-04 -1.185E-05\n',
               '-   1    4   32     1    32    2.0418E+00  9.0568E-04   '
               '2.0409E+00  0.000E+00  0.000E+00  0.000E+00  1.31611E+02  '
               '1.061E+00  3.082E+00  5.798E-04  9.172E-04 -1.151E-05\n',
               '-   1    4   33     1    33    2.0409E+00  9.0542E-04   '
               '2.0400E+00  0.000E+00  0.000E+00  0.000E+00  1.31311E+02  '
               '1.061E+00  3.081E+00  5.797E-04  9.128E-04 -7.369E-06\n',
               '-   1    4   34     1    34    2.0400E+00  9.0516E-04   '
               '2.0391E+00  0.000E+00  0.000E+00  0.000E+00  1.31010E+02  '
               '1.060E+00  3.081E+00  5.796E-04  9.121E-04 -6.955E-06\n',
               '-   1    4   35     1    35    2.0391E+00  9.0489E-04   '
               '2.0382E+00  0.000E+00  0.000E+00  0.000E+00  1.30710E+02  '
               '1.060E+00  3.081E+00  5.796E-04  9.115E-04 -6.629E-06\n',
               '-   1    4   36     1    36    2.0382E+00  9.0463E-04   '
               '2.0373E+00  0.000E+00  0.000E+00  0.000E+00  1.30410E+02  '
               '1.060E+00  3.081E+00  5.795E-04  9.109E-04 -6.298E-06\n',
               '-   1    4   37     1    37    2.0373E+00  9.0437E-04   '
               '2.0364E+00  0.000E+00  0.000E+00  0.000E+00  1.30110E+02  '
               '1.060E+00  3.080E+00  5.794E-04  9.103E-04 -5.963E-06\n',
               '-   1    4   38     1    38    2.0364E+00  9.0410E-04   '
               '2.0354E+00  0.000E+00  0.000E+00  0.000E+00  1.29809E+02  '
               '1.059E+00  3.080E+00  5.793E-04  9.097E-04 -5.624E-06\n',
               '-   1    4   39     1    39    2.0354E+00  9.0384E-04   '
               '2.0345E+00  0.000E+00  0.000E+00  0.000E+00  1.29509E+02  '
               '1.059E+00  3.080E+00  5.792E-04  9.091E-04 -5.282E-06\n',
               '-   1    4   40     1    40    2.0345E+00  9.0358E-04   '
               '2.0336E+00  0.000E+00  0.000E+00  0.000E+00  1.29209E+02  '
               '1.059E+00  3.079E+00  5.792E-04  9.085E-04 -4.938E-06\n',
               '-   1    4   41     1    41    2.0336E+00  9.0332E-04   '
               '2.0327E+00  0.000E+00  0.000E+00  0.000E+00  1.28909E+02  '
               '1.059E+00  3.079E+00  5.791E-04  9.079E-04 -4.592E-06\n',
               '-   1    4   42     1    42    2.0327E+00  9.0305E-04   '
               '2.0318E+00  0.000E+00  0.000E+00  0.000E+00  1.28608E+02  '
               '1.058E+00  3.079E+00  5.790E-04  9.073E-04 -4.246E-06\n',
               '-   1    4   43     1    43    2.0318E+00  9.0279E-04   '
               '2.0309E+00  0.000E+00  0.000E+00  0.000E+00  1.28308E+02  '
               '1.058E+00  3.079E+00  5.789E-04  9.067E-04 -3.899E-06\n',
               '-   1    4   44     1    44    2.0309E+00  9.0253E-04   '
               '2.0300E+00  0.000E+00  0.000E+00  0.000E+00  1.28008E+02  '
               '1.058E+00  3.078E+00  5.788E-04  9.061E-04 -3.546E-06\n',
               '-   1    4   45     1    45    2.0300E+00  9.0226E-04   '
               '2.0291E+00  0.000E+00  0.000E+00  0.000E+00  1.27708E+02  '
               '1.058E+00  3.078E+00  5.788E-04  9.055E-04 -3.227E-06\n',
               '-   1    4   46     1    46    2.0291E+00  9.0200E-04   '
               '2.0282E+00  0.000E+00  0.000E+00  0.000E+00  1.27407E+02  '
               '1.057E+00  3.078E+00  5.787E-04  9.049E-04 -2.911E-06\n',
               '-   1    4   47     1    47    2.0282E+00  9.0174E-04   '
               '2.0273E+00  0.000E+00  0.000E+00  0.000E+00  1.27107E+02  '
               '1.057E+00  3.077E+00  5.786E-04  9.043E-04 -2.596E-06\n',
               '-   1    4   48     1    48    2.0273E+00  9.0148E-04   '
               '2.0264E+00  0.000E+00  0.000E+00  0.000E+00  1.26807E+02  '
               '1.057E+00  3.077E+00  5.785E-04  9.038E-04 -2.283E-06\n',
               '-   1    4   49     1    49    2.0264E+00  9.0122E-04   '
               '2.0255E+00  0.000E+00  0.000E+00  0.000E+00  1.26507E+02  '
               '1.057E+00  3.077E+00  5.785E-04  9.032E-04 -1.974E-06\n',
               '-   1    4   50     1    50    2.0255E+00  9.0095E-04   '
               '2.0246E+00  0.000E+00  0.000E+00  0.000E+00  1.26206E+02  '
               '1.056E+00  3.077E+00  5.784E-04  9.026E-04 -1.668E-06\n',
               '-   1    4   51     1    51    2.0246E+00  9.0069E-04   '
               '2.0237E+00  0.000E+00  0.000E+00  0.000E+00  1.25906E+02  '
               '1.056E+00  3.076E+00  5.783E-04  9.021E-04 -1.368E-06\n',
               '-   1    4   52     1    52    2.0237E+00  9.0043E-04   '
               '2.0228E+00  0.000E+00  0.000E+00  0.000E+00  1.25606E+02  '
               '1.056E+00  3.076E+00  5.782E-04  9.015E-04 -1.073E-06\n',
               '-   1    4   53     1    53    2.0228E+00  9.0017E-04   '
               '2.0219E+00  0.000E+00  0.000E+00  0.000E+00  1.25306E+02  '
               '1.056E+00  3.076E+00  5.781E-04  9.010E-04 -7.842E-07\n',
               '-   1    4   54     1    54    2.0219E+00  8.9990E-04   '
               '2.0210E+00  0.000E+00  0.000E+00  0.000E+00  1.25006E+02  '
               '1.056E+00  3.075E+00  5.781E-04  9.004E-04 -5.033E-07\n',
               '-   1    4   55     1    55    2.0210E+00  8.9964E-04   '
               '2.0201E+00  0.000E+00  0.000E+00  0.000E+00  1.24705E+02  '
               '1.055E+00  3.075E+00  5.780E-04  8.999E-04 -2.297E-07\n',
               '-   1    4   56     1    56    2.0201E+00  8.9938E-04   '
               '2.0192E+00  0.000E+00  0.000E+00  0.000E+00  1.24405E+02  '
               '1.055E+00  3.075E+00  5.779E-04  8.994E-04  3.653E-08\n',
               '-   1    4   57     1    57    2.0192E+00  8.9912E-04   '
               '2.0183E+00  0.000E+00  0.000E+00  0.000E+00  1.24105E+02  '
               '1.055E+00  3.074E+00  5.778E-04  8.988E-04  2.922E-07\n',
               '-   1    4   58     1    58    2.0183E+00  8.9886E-04   '
               '2.0174E+00  0.000E+00  0.000E+00  0.000E+00  1.23805E+02  '
               '1.055E+00  3.074E+00  5.777E-04  8.983E-04  5.298E-07\n',
               '-   1    4   59     1    59    2.0174E+00  8.9860E-04   '
               '2.0165E+00  0.000E+00  0.000E+00  0.000E+00  1.23504E+02  '
               '1.054E+00  3.074E+00  5.777E-04  8.979E-04  7.418E-07\n',
               '-   1    4   60     1    60    2.0165E+00  8.9833E-04   '
               '2.0156E+00  0.000E+00  0.000E+00  0.000E+00  1.23204E+02  '
               '1.054E+00  3.074E+00  5.776E-04  9.006E-04 -2.248E-06\n',
               '-   1    4   61     1    61    2.0156E+00  8.9807E-04   '
               '2.0147E+00  0.000E+00  0.000E+00  0.000E+00  1.22904E+02  '
               '1.054E+00  3.073E+00  5.775E-04  9.001E-04 -2.022E-06\n',
               '-   1    4   62     1    62    2.0147E+00  8.9781E-04   '
               '2.0138E+00  0.000E+00  0.000E+00  0.000E+00  1.22604E+02  '
               '1.054E+00  3.073E+00  5.774E-04  8.996E-04 -1.808E-06\n',
               '-   1    4   63     1    63    2.0138E+00  8.9755E-04   '
               '2.0129E+00  0.000E+00  0.000E+00  0.000E+00  1.22303E+02  '
               '1.053E+00  3.073E+00  5.774E-04  8.992E-04 -1.610E-06\n',
               '-   1    4   64     1    64    2.0129E+00  8.9729E-04   '
               '2.0120E+00  0.000E+00  0.000E+00  0.000E+00  1.22003E+02  '
               '1.053E+00  3.072E+00  5.773E-04  8.987E-04 -1.426E-06\n',
               '-   1    4   65     1    65    2.0120E+00  8.9703E-04   '
               '2.0111E+00  0.000E+00  0.000E+00  0.000E+00  1.21703E+02  '
               '1.053E+00  3.072E+00  5.772E-04  8.983E-04 -1.259E-06\n',
               '-   1    4   66     1    66    2.0111E+00  8.9677E-04   '
               '2.0102E+00  0.000E+00  0.000E+00  0.000E+00  1.21403E+02  '
               '1.053E+00  3.072E+00  5.771E-04  8.979E-04 -1.109E-06\n',
               '-   1    4   67     1    67    2.0102E+00  8.9650E-04   '
               '2.0093E+00  0.000E+00  0.000E+00  0.000E+00  1.21102E+02  '
               '1.052E+00  3.072E+00  5.770E-04  8.975E-04 -9.768E-07\n',
               '-   1    4   68     1    68    2.0093E+00  8.9624E-04   '
               '2.0084E+00  0.000E+00  0.000E+00  0.000E+00  1.20802E+02  '
               '1.052E+00  3.071E+00  5.770E-04  8.971E-04 -8.623E-07\n',
               '-   1    4   69     1    69    2.0084E+00  8.9598E-04   '
               '2.0076E+00  0.000E+00  0.000E+00  0.000E+00  1.20502E+02  '
               '1.052E+00  3.071E+00  5.769E-04  8.968E-04 -7.663E-07\n',
               '-   1    4   70     1    70    2.0076E+00  8.9572E-04   '
               '2.0067E+00  0.000E+00  0.000E+00  0.000E+00  1.20202E+02  '
               '1.052E+00  3.071E+00  5.768E-04  8.964E-04 -6.897E-07\n',
               '-   1    4   71     1    71    2.0067E+00  8.9546E-04   '
               '2.0058E+00  0.000E+00  0.000E+00  0.000E+00  1.19901E+02  '
               '1.051E+00  3.070E+00  5.767E-04  8.961E-04 -6.334E-07\n',
               '-   1    4   72     1    72    2.0058E+00  8.9520E-04   '
               '2.0049E+00  0.000E+00  0.000E+00  0.000E+00  1.19601E+02  '
               '1.051E+00  3.070E+00  5.766E-04  8.958E-04 -5.974E-07\n',
               '-   1    4   73     1    73    2.0049E+00  8.9494E-04   '
               '2.0040E+00  0.000E+00  0.000E+00  0.000E+00  1.19301E+02  '
               '1.051E+00  3.070E+00  5.766E-04  8.997E-04 -4.756E-06\n',
               '-   1    4   74     1    74    2.0040E+00  8.9468E-04   '
               '2.0031E+00  0.000E+00  0.000E+00  0.000E+00  1.19001E+02  '
               '1.051E+00  3.070E+00  5.765E-04  9.012E-04 -6.497E-06\n',
               '-   1    4   75     1    75    2.0031E+00  8.9442E-04   '
               '2.0022E+00  0.000E+00  0.000E+00  0.000E+00  1.18700E+02  '
               '1.050E+00  3.069E+00  5.764E-04  9.010E-04 -6.531E-06\n',
               '-   1    4   76     1    76    2.0022E+00  8.9416E-04   '
               '2.0013E+00  0.000E+00  0.000E+00  0.000E+00  1.18400E+02  '
               '1.050E+00  3.069E+00  5.763E-04  9.034E-04 -9.196E-06\n',
               '-   1    4   77     1    77    2.0013E+00  8.9390E-04   '
               '2.0004E+00  0.000E+00  0.000E+00  0.000E+00  1.18100E+02  '
               '1.050E+00  3.069E+00  5.763E-04  9.079E-04 -1.399E-05\n',
               '-   1    4   78     1    78    2.0004E+00  8.9364E-04   '
               '1.9995E+00  0.000E+00  0.000E+00  0.000E+00  1.17800E+02  '
               '1.050E+00  3.068E+00  5.762E-04  9.079E-04 -1.423E-05\n',
               '-   1    4   79     1    79    1.9995E+00  8.9337E-04   '
               '1.9986E+00  0.000E+00  0.000E+00  0.000E+00  1.17499E+02  '
               '1.049E+00  3.068E+00  5.761E-04  9.078E-04 -1.437E-05\n',
               '-   1    4   80     1    80    1.9986E+00  8.9311E-04   '
               '1.9977E+00  0.000E+00  0.000E+00  0.000E+00  1.17199E+02  '
               '1.049E+00  3.068E+00  5.760E-04  9.076E-04 -1.453E-05\n',
               '-   1    4   81     1    81    1.9977E+00  8.9285E-04   '
               '1.9968E+00  0.000E+00  0.000E+00  0.000E+00  1.16899E+02  '
               '1.049E+00  3.068E+00  5.759E-04  9.076E-04 -1.471E-05\n',
               '-   1    4   82     1    82    1.9968E+00  8.9259E-04   '
               '1.9959E+00  0.000E+00  0.000E+00  0.000E+00  1.16599E+02  '
               '1.049E+00  3.067E+00  5.759E-04  9.075E-04 -1.491E-05\n',
               '-   1    4   83     1    83    1.9959E+00  8.9233E-04   '
               '1.9950E+00  0.000E+00  0.000E+00  0.000E+00  1.16299E+02  '
               '1.049E+00  3.067E+00  5.758E-04  9.075E-04 -1.514E-05\n',
               '-   1    4   84     1    84    1.9950E+00  8.9207E-04   '
               '1.9941E+00  0.000E+00  0.000E+00  0.000E+00  1.15998E+02  '
               '1.048E+00  3.067E+00  5.757E-04  9.075E-04 -1.540E-05\n',
               '-   1    4   85     1    85    1.9941E+00  8.9181E-04   '
               '1.9932E+00  0.000E+00  0.000E+00  0.000E+00  1.15698E+02  '
               '1.048E+00  3.066E+00  5.756E-04  9.075E-04 -1.568E-05\n',
               '-   1    4   86     1    86    1.9932E+00  8.9155E-04   '
               '1.9924E+00  0.000E+00  0.000E+00  0.000E+00  1.15398E+02  '
               '1.048E+00  3.066E+00  5.755E-04  9.076E-04 -1.600E-05\n',
               '-   1    4   87     1    87    1.9924E+00  8.9129E-04   '
               '1.9915E+00  0.000E+00  0.000E+00  0.000E+00  1.15098E+02  '
               '1.048E+00  3.066E+00  5.755E-04  9.076E-04 -1.635E-05\n',
               '-   1    4   88     1    88    1.9915E+00  8.9103E-04   '
               '1.9906E+00  0.000E+00  0.000E+00  0.000E+00  1.14797E+02  '
               '1.047E+00  3.066E+00  5.754E-04  9.078E-04 -1.673E-05\n',
               '-   1    4   89     1    89    1.9906E+00  8.9077E-04   '
               '1.9897E+00  0.000E+00  0.000E+00  0.000E+00  1.14497E+02  '
               '1.047E+00  3.065E+00  5.753E-04  9.079E-04 -1.716E-05\n',
               '-   1    4   90     1    90    1.9897E+00  8.9051E-04   '
               '1.9888E+00  0.000E+00  0.000E+00  0.000E+00  1.14197E+02  '
               '1.047E+00  3.065E+00  5.752E-04  9.082E-04 -1.765E-05\n',
               '-   1    4   91     1    91    1.9888E+00  8.9025E-04   '
               '1.9879E+00  0.000E+00  0.000E+00  0.000E+00  1.13897E+02  '
               '1.047E+00  3.065E+00  5.752E-04  9.116E-04 -2.135E-05\n',
               '-   1    4   92     1    92    1.9879E+00  8.8999E-04   '
               '1.9870E+00  0.000E+00  0.000E+00  0.000E+00  1.13596E+02  '
               '1.046E+00  3.064E+00  5.751E-04  9.186E-04 -2.861E-05\n',
               '-   1    4   93     1    93    1.9870E+00  8.8974E-04   '
               '1.9861E+00  0.000E+00  0.000E+00  0.000E+00  1.13296E+02  '
               '1.046E+00  3.064E+00  5.750E-04  9.192E-04 -2.942E-05\n',
               '-   1    4   94     1    94    1.9861E+00  8.8948E-04   '
               '1.9852E+00  0.000E+00  0.000E+00  0.000E+00  1.12996E+02  '
               '1.046E+00  3.064E+00  5.749E-04  9.199E-04 -3.038E-05\n',
               '-   1    4   95     1    95    1.9852E+00  8.8922E-04   '
               '1.9843E+00  0.000E+00  0.000E+00  0.000E+00  1.12696E+02  '
               '1.046E+00  3.064E+00  5.748E-04  9.208E-04 -3.153E-05\n',
               '-   1    4   96     1    96    1.9843E+00  8.8896E-04   '
               '1.9835E+00  0.000E+00  0.000E+00  0.000E+00  1.12395E+02  '
               '1.045E+00  3.063E+00  5.748E-04  9.218E-04 -3.289E-05\n',
               '-   1    4   97     1    97    1.9835E+00  8.8870E-04   '
               '1.9826E+00  0.000E+00  0.000E+00  0.000E+00  1.12095E+02  '
               '1.045E+00  3.063E+00  5.747E-04  9.257E-04 -3.701E-05\n',
               '-   1    4   98     1    98    1.9826E+00  8.8844E-04   '
               '1.9817E+00  0.000E+00  0.000E+00  0.000E+00  1.11795E+02  '
               '1.045E+00  3.063E+00  5.746E-04  9.318E-04 -4.332E-05\n',
               '-   1    4   99     1    99    1.9817E+00  8.8818E-04   '
               '1.9808E+00  0.000E+00  0.000E+00  0.000E+00  1.11495E+02  '
               '1.045E+00  3.062E+00  5.745E-04  9.336E-04 -4.542E-05\n',
               '-   1    4  100     1   100    1.9808E+00  8.8792E-04   '
               '1.9799E+00  0.000E+00  0.000E+00  0.000E+00  1.11194E+02  '
               '1.044E+00  3.062E+00  5.744E-04  9.356E-04 -4.766E-05\n',
               '-\n',
               '-\n',
               '-\n',
               '-1\n',
               '-  VOLUMETRIC BUDGET FOR UNSATURATED ZONE BENEATH STREAMS AT '
               'END OF TIME STEP    30 STRESS PERIOD  33\n',
               '-  '
               '------------------------------------------------------------------------------------------------\n',
               '-\n',
               '-    CUMULATIVE VOLUMES             L**3    RATES FOR THIS '
               'TIME STEP         L**3/T\n',
               '-    ------------------                     '
               '------------------------\n',
               '-\n',
               '-\n',
               '-          STREAM LOSS =     30082580.0000            STREAM '
               'LOSS =        9.0085E-02\n',
               '-    CHANGE IN STORAGE =       350894.4062      CHANGE IN '
               'STORAGE =       -1.4179E-03\n',
               '-       RECHARGE TO GW =     29735830.0000         RECHARGE TO '
               'GW =        9.1504E-02\n',
               '-\n',
               '-             TOTAL IN =     30082580.0000               TOTAL '
               'IN =        9.1503E-02\n',
               '-\n',
               '-            TOTAL OUT =     30086724.0000              TOTAL '
               'OUT =        9.1504E-02\n',
               '-\n',
               '-             IN - OUT =        -4144.0000               IN - '
               'OUT =       -1.1399E-06\n',
               '-\n',
               '-  PERCENT DISCREPANCY =           -0.00      PERCENT '
               'DISCREPANCY =            -0.00\n',
               '-\n',
               '-\n',
               '-\n',
               '-1\n',
               '-  VOLUMETRIC BUDGET FOR ENTIRE MODEL AT END OF TIME STEP   '
               '30, STRESS PERIOD  33\n',
               '-  '
               '------------------------------------------------------------------------------\n',
               '-\n',
               '-     CUMULATIVE VOLUMES      L**3       RATES FOR THIS TIME '
               'STEP      L**3/T\n',
               '-     ------------------                 '
               '------------------------\n',
               '-\n',
               '-           IN:                                      IN:\n',
               '-           ---                                      ---\n',
               '-             STORAGE =    14057262.0000               STORAGE '
               '=           0.1235\n',
               '-       CONSTANT HEAD =           0.0000         CONSTANT HEAD '
               '=           0.0000\n',
               '-     HEAD DEP BOUNDS =           0.0000       HEAD DEP BOUNDS '
               '=           0.0000\n',
               '-      STREAM LEAKAGE =    29735816.0000        STREAM LEAKAGE '
               '=       9.1504E-02\n',
               '-\n',
               '-            TOTAL IN =    43793080.0000              TOTAL IN '
               '=           0.2151\n',
               '-\n',
               '-          OUT:                                     OUT:\n',
               '-          ----                                     ----\n',
               '-             STORAGE =    15953330.0000               STORAGE '
               '=           0.0000\n',
               '-       CONSTANT HEAD =           0.0000         CONSTANT HEAD '
               '=           0.0000\n',
               '-     HEAD DEP BOUNDS =    27839576.0000       HEAD DEP BOUNDS '
               '=           0.2150\n',
               '-      STREAM LEAKAGE =           0.0000        STREAM LEAKAGE '
               '=           0.0000\n',
               '-\n',
               '-           TOTAL OUT =    43792904.0000             TOTAL OUT '
               '=           0.2150\n',
               '-\n',
               '-            IN - OUT =         176.0000              IN - OUT '
               '=       6.2883E-06\n',
               '-\n',
               '- PERCENT DISCREPANCY =           0.00     PERCENT DISCREPANCY '
               '=           0.00\n',
               '-\n',
               '-\n',
               '-\n',
               '-\n',
               '-\n',
               '-\n',
               '-         TIME SUMMARY AT END OF TIME STEP   30 IN STRESS '
               'PERIOD   33\n',
               '-                    SECONDS     MINUTES      HOURS       '
               'DAYS        YEARS\n',
               '-                    '
               '-----------------------------------------------------------\n',
               '-   TIME STEP LENGTH 2.49961E+05  4166.0      69.434      '
               '2.8931     7.92080E-03\n',
               '- STRESS PERIOD TIME 2.59200E+06  43200.      720.00      '
               '30.000     8.21355E-02\n',
               '-         TOTAL TIME 8.55360E+07 1.42560E+06  23760.      '
               '990.00      2.7105    \n',
               '-1\n',
               '-1\n',
               '-                            STRESS PERIOD NO.   34, LENGTH '
               '=   2592000.    \n',
               '-                            '
               '-----------------------------------------------\n',
               '-\n',
               '-                              NUMBER OF TIME STEPS =    30\n',
               '-\n',
               '-                               MULTIPLIER FOR DELT =     '
               '1.100\n',
               '-\n',
               '-                            INITIAL TIME STEP SIZE =   '
               '15757.40    \n',
               '-\n',
               '- REUSING NON-PARAMETER GHB CELLS FROM LAST STRESS PERIOD\n',
               '-\n',
               '-      7 GHB CELLS\n',
               '- \n',
               '- SOLVING FOR HEAD \n',
               '-\n',
               '- NO OUTPUT CONTROL FOR STRESS PERIOD   34   TIME STEP    1\n',
               '- \n',
               '- SOLVING FOR HEAD \n',
               '-\n',
               '- NO OUTPUT CONTROL FOR STRESS PERIOD   34   TIME STEP    2\n',
               '- \n',
               '- SOLVING FOR HEAD \n',
               '-\n',
               '- NO OUTPUT CONTROL FOR STRESS PERIOD   34   TIME STEP    3\n',
               '- \n',
               '- SOLVING FOR HEAD \n',
               '-\n',
               '- NO OUTPUT CONTROL FOR STRESS PERIOD   34   TIME STEP    4\n',
               '- \n',
               '- SOLVING FOR HEAD \n',
               '-\n',
               '- NO OUTPUT CONTROL FOR STRESS PERIOD   34   TIME STEP    5\n',
               '- \n',
               '- SOLVING FOR HEAD \n',
               '-\n',
               '- NO OUTPUT CONTROL FOR STRESS PERIOD   34   TIME STEP    6\n',
               '- \n',
               '- SOLVING FOR HEAD \n',
               '-\n',
               '- NO OUTPUT CONTROL FOR STRESS PERIOD   34   TIME STEP    7\n',
               '- \n',
               '- SOLVING FOR HEAD \n',
               '-\n',
               '- NO OUTPUT CONTROL FOR STRESS PERIOD   34   TIME STEP    8\n',
               '- \n',
               '- SOLVING FOR HEAD \n',
               '-\n',
               '- NO OUTPUT CONTROL FOR STRESS PERIOD   34   TIME STEP    9\n',
               '- \n',
               '- SOLVING FOR HEAD \n',
               '-\n',
               '- NO OUTPUT CONTROL FOR STRESS PERIOD   34   TIME STEP   10\n',
               '- \n',
               '- SOLVING FOR HEAD \n',
               '-\n',
               '- NO OUTPUT CONTROL FOR STRESS PERIOD   34   TIME STEP   11\n',
               '- \n',
               '- SOLVING FOR HEAD \n',
               '-\n',
               '- NO OUTPUT CONTROL FOR STRESS PERIOD   34   TIME STEP   12\n',
               '- \n',
               '- SOLVING FOR HEAD \n',
               '-\n',
               '- NO OUTPUT CONTROL FOR STRESS PERIOD   34   TIME STEP   13\n',
               '- \n',
               '- SOLVING FOR HEAD \n',
               '-\n',
               '- NO OUTPUT CONTROL FOR STRESS PERIOD   34   TIME STEP   14\n',
               '- \n',
               '- SOLVING FOR HEAD \n',
               '-\n',
               '- NO OUTPUT CONTROL FOR STRESS PERIOD   34   TIME STEP   15\n',
               '- \n',
               '- SOLVING FOR HEAD \n',
               '-\n',
               '- NO OUTPUT CONTROL FOR STRESS PERIOD   34   TIME STEP   16\n',
               '- \n',
               '- SOLVING FOR HEAD \n',
               '-\n',
               '- NO OUTPUT CONTROL FOR STRESS PERIOD   34   TIME STEP   17\n',
               '- \n',
               '- SOLVING FOR HEAD \n',
               '-\n',
               '- NO OUTPUT CONTROL FOR STRESS PERIOD   34   TIME STEP   18\n',
               '- \n',
               '- SOLVING FOR HEAD \n',
               '-\n',
               '- NO OUTPUT CONTROL FOR STRESS PERIOD   34   TIME STEP   19\n',
               '- \n',
               '- SOLVING FOR HEAD \n',
               '-\n',
               '- NO OUTPUT CONTROL FOR STRESS PERIOD   34   TIME STEP   20\n',
               '- \n',
               '- SOLVING FOR HEAD \n',
               '-\n',
               '- NO OUTPUT CONTROL FOR STRESS PERIOD   34   TIME STEP   21\n',
               '- \n',
               '- SOLVING FOR HEAD \n',
               '-\n',
               '- NO OUTPUT CONTROL FOR STRESS PERIOD   34   TIME STEP   22\n',
               '- \n',
               '- SOLVING FOR HEAD \n',
               '-\n',
               '- NO OUTPUT CONTROL FOR STRESS PERIOD   34   TIME STEP   23\n',
               '- \n',
               '- SOLVING FOR HEAD \n',
               '-\n',
               '- NO OUTPUT CONTROL FOR STRESS PERIOD   34   TIME STEP   24\n',
               '- \n',
               '- SOLVING FOR HEAD \n',
               '-\n',
               '- NO OUTPUT CONTROL FOR STRESS PERIOD   34   TIME STEP   25\n',
               '- \n',
               '- SOLVING FOR HEAD \n',
               '-\n',
               '- NO OUTPUT CONTROL FOR STRESS PERIOD   34   TIME STEP   26\n',
               '- \n',
               '- SOLVING FOR HEAD \n',
               '-\n',
               '- NO OUTPUT CONTROL FOR STRESS PERIOD   34   TIME STEP   27\n',
               '- \n',
               '- SOLVING FOR HEAD \n',
               '-\n',
               '- NO OUTPUT CONTROL FOR STRESS PERIOD   34   TIME STEP   28\n',
               '- \n',
               '- SOLVING FOR HEAD \n',
               '-\n',
               '- NO OUTPUT CONTROL FOR STRESS PERIOD   34   TIME STEP   29\n',
               '- \n',
               '- SOLVING FOR HEAD \n',
               '-\n',
               '- NO OUTPUT CONTROL FOR STRESS PERIOD   34   TIME STEP   30\n',
               '-\n',
               '-\n',
               '-\n',
               '- STREAM LISTING     PERIOD     34   STEP       30\n',
               '-\n',
               '- LAYER ROW COL. STREAM  RCH.   FLOW INTO    STREAM     FLOW '
               'OUT OF   OVRLND.    DIRECT     STREAM      STREAM      '
               'STREAM     STREAM  STREAMBED   FLOW TO   CHNG. UNSAT. \n',
               '-                SEG.NO.  NO.   STRM. RCH.    LOSS       STRM. '
               'RCH.   RUNOFF     PRECIP       ET         HEAD        '
               'DEPTH      WIDTH  CONDCTNC.   WAT. TAB.\n',
               '-\n',
               '-   1    4    1     1     1    3.4999E-01  3.6686E-04   '
               '3.4962E-01  0.000E+00  0.000E+00  0.000E+00  1.40308E+02  '
               '4.578E-01  2.360E+00  3.830E-04  3.881E-04 -2.125E-05\n',
               '-   1    4    2     1     2    3.4962E-01  3.6672E-04   '
               '3.4925E-01  0.000E+00  0.000E+00  0.000E+00  1.40008E+02  '
               '4.576E-01  2.360E+00  3.829E-04  3.879E-04 -2.122E-05\n',
               '-   1    4    3     1     3    3.4925E-01  3.6658E-04   '
               '3.4889E-01  0.000E+00  0.000E+00  0.000E+00  1.39707E+02  '
               '4.574E-01  2.360E+00  3.829E-04  3.878E-04 -2.117E-05\n',
               '-   1    4    4     1     4    3.4889E-01  3.6644E-04   '
               '3.4852E-01  0.000E+00  0.000E+00  0.000E+00  1.39407E+02  '
               '4.572E-01  2.359E+00  3.828E-04  3.876E-04 -2.113E-05\n',
               '-   1    4    5     1     5    3.4852E-01  3.6630E-04   '
               '3.4816E-01  0.000E+00  0.000E+00  0.000E+00  1.39107E+02  '
               '4.570E-01  2.359E+00  3.827E-04  3.874E-04 -2.107E-05\n',
               '-   1    4    6     1     6    3.4816E-01  3.6616E-04   '
               '3.4779E-01  0.000E+00  0.000E+00  0.000E+00  1.38807E+02  '
               '4.568E-01  2.359E+00  3.827E-04  3.872E-04 -2.100E-05\n',
               '-   1    4    7     1     7    3.4779E-01  3.6601E-04   '
               '3.4742E-01  0.000E+00  0.000E+00  0.000E+00  1.38507E+02  '
               '4.566E-01  2.359E+00  3.826E-04  3.869E-04 -2.092E-05\n',
               '-   1    4    8     1     8    3.4742E-01  3.6587E-04   '
               '3.4706E-01  0.000E+00  0.000E+00  0.000E+00  1.38206E+02  '
               '4.564E-01  2.359E+00  3.825E-04  3.867E-04 -2.083E-05\n',
               '-   1    4    9     1     9    3.4706E-01  3.6573E-04   '
               '3.4669E-01  0.000E+00  0.000E+00  0.000E+00  1.37906E+02  '
               '4.562E-01  2.358E+00  3.825E-04  3.865E-04 -2.073E-05\n',
               '-   1    4   10     1    10    3.4669E-01  3.6559E-04   '
               '3.4633E-01  0.000E+00  0.000E+00  0.000E+00  1.37606E+02  '
               '4.560E-01  2.358E+00  3.824E-04  3.862E-04 -2.062E-05\n',
               '-   1    4   11     1    11    3.4633E-01  3.6545E-04   '
               '3.4596E-01  0.000E+00  0.000E+00  0.000E+00  1.37306E+02  '
               '4.558E-01  2.358E+00  3.823E-04  3.859E-04 -2.049E-05\n',
               '-   1    4   12     1    12    3.4596E-01  3.6531E-04   '
               '3.4560E-01  0.000E+00  0.000E+00  0.000E+00  1.37006E+02  '
               '4.556E-01  2.358E+00  3.823E-04  3.857E-04 -2.035E-05\n',
               '-   1    4   13     1    13    3.4560E-01  3.6517E-04   '
               '3.4523E-01  0.000E+00  0.000E+00  0.000E+00  1.36705E+02  '
               '4.554E-01  2.357E+00  3.822E-04  3.854E-04 -2.020E-05\n',
               '-   1    4   14     1    14    3.4523E-01  3.6503E-04   '
               '3.4487E-01  0.000E+00  0.000E+00  0.000E+00  1.36405E+02  '
               '4.552E-01  2.357E+00  3.821E-04  3.851E-04 -2.004E-05\n',
               '-   1    4   15     1    15    3.4487E-01  3.6489E-04   '
               '3.4450E-01  0.000E+00  0.000E+00  0.000E+00  1.36105E+02  '
               '4.550E-01  2.357E+00  3.821E-04  3.776E-04 -1.272E-05\n',
               '-   1    4   16     1    16    3.4450E-01  3.6475E-04   '
               '3.4414E-01  0.000E+00  0.000E+00  0.000E+00  1.35805E+02  '
               '4.548E-01  2.357E+00  3.820E-04  3.773E-04 -1.257E-05\n',
               '-   1    4   17     1    17    3.4414E-01  3.6461E-04   '
               '3.4377E-01  0.000E+00  0.000E+00  0.000E+00  1.35505E+02  '
               '4.546E-01  2.356E+00  3.819E-04  3.770E-04 -1.239E-05\n',
               '-   1    4   18     1    18    3.4377E-01  3.6447E-04   '
               '3.4341E-01  0.000E+00  0.000E+00  0.000E+00  1.35204E+02  '
               '4.544E-01  2.356E+00  3.819E-04  3.767E-04 -1.221E-05\n',
               '-   1    4   19     1    19    3.4341E-01  3.6433E-04   '
               '3.4304E-01  0.000E+00  0.000E+00  0.000E+00  1.34904E+02  '
               '4.541E-01  2.356E+00  3.818E-04  3.764E-04 -1.202E-05\n',
               '-   1    4   20     1    20    3.4304E-01  3.6419E-04   '
               '3.4268E-01  0.000E+00  0.000E+00  0.000E+00  1.34604E+02  '
               '4.539E-01  2.356E+00  3.817E-04  3.760E-04 -1.182E-05\n',
               '-   1    4   21     1    21    3.4268E-01  3.6405E-04   '
               '3.4231E-01  0.000E+00  0.000E+00  0.000E+00  1.34304E+02  '
               '4.537E-01  2.355E+00  3.817E-04  3.757E-04 -1.161E-05\n',
               '-   1    4   22     1    22    3.4231E-01  3.6391E-04   '
               '3.4195E-01  0.000E+00  0.000E+00  0.000E+00  1.34004E+02  '
               '4.535E-01  2.355E+00  3.816E-04  3.753E-04 -1.139E-05\n',
               '-   1    4   23     1    23    3.4195E-01  3.6377E-04   '
               '3.4159E-01  0.000E+00  0.000E+00  0.000E+00  1.33703E+02  '
               '4.533E-01  2.355E+00  3.815E-04  3.734E-04 -9.656E-06\n',
               '-   1    4   24     1    24    3.4159E-01  3.6363E-04   '
               '3.4122E-01  0.000E+00  0.000E+00  0.000E+00  1.33403E+02  '
               '4.531E-01  2.355E+00  3.815E-04  3.706E-04 -6.955E-06\n',
               '-   1    4   25     1    25    3.4122E-01  3.6349E-04   '
               '3.4086E-01  0.000E+00  0.000E+00  0.000E+00  1.33103E+02  '
               '4.529E-01  2.354E+00  3.814E-04  3.691E-04 -5.598E-06\n',
               '-   1    4   26     1    26    3.4086E-01  3.6335E-04   '
               '3.4050E-01  0.000E+00  0.000E+00  0.000E+00  1.32803E+02  '
               '4.527E-01  2.354E+00  3.813E-04  3.707E-04 -7.373E-06\n',
               '-   1    4   27     1    27    3.4050E-01  3.6321E-04   '
               '3.4013E-01  0.000E+00  0.000E+00  0.000E+00  1.32503E+02  '
               '4.525E-01  2.354E+00  3.813E-04  3.722E-04 -8.941E-06\n',
               '-   1    4   28     1    28    3.4013E-01  3.6307E-04   '
               '3.3977E-01  0.000E+00  0.000E+00  0.000E+00  1.32202E+02  '
               '4.523E-01  2.354E+00  3.812E-04  3.734E-04 -1.030E-05\n',
               '-   1    4   29     1    29    3.3977E-01  3.6293E-04   '
               '3.3941E-01  0.000E+00  0.000E+00  0.000E+00  1.31902E+02  '
               '4.521E-01  2.353E+00  3.812E-04  3.744E-04 -1.145E-05\n',
               '-   1    4   30     1    30    3.3941E-01  3.6279E-04   '
               '3.3904E-01  0.000E+00  0.000E+00  0.000E+00  1.31602E+02  '
               '4.519E-01  2.353E+00  3.811E-04  3.752E-04 -1.239E-05\n',
               '-   1    4   31     1    31    3.3904E-01  3.6265E-04   '
               '3.3868E-01  0.000E+00  0.000E+00  0.000E+00  1.31302E+02  '
               '4.517E-01  2.353E+00  3.810E-04  3.758E-04 -1.312E-05\n',
               '-   1    4   32     1    32    3.3868E-01  3.6251E-04   '
               '3.3832E-01  0.000E+00  0.000E+00  0.000E+00  1.31002E+02  '
               '4.515E-01  2.353E+00  3.810E-04  3.762E-04 -1.365E-05\n',
               '-   1    4   33     1    33    3.3832E-01  3.6237E-04   '
               '3.3796E-01  0.000E+00  0.000E+00  0.000E+00  1.30701E+02  '
               '4.513E-01  2.352E+00  3.809E-04  3.757E-04 -1.329E-05\n',
               '-   1    4   34     1    34    3.3796E-01  3.6223E-04   '
               '3.3759E-01  0.000E+00  0.000E+00  0.000E+00  1.30401E+02  '
               '4.511E-01  2.352E+00  3.808E-04  3.751E-04 -1.285E-05\n',
               '-   1    4   35     1    35    3.3759E-01  3.6209E-04   '
               '3.3723E-01  0.000E+00  0.000E+00  0.000E+00  1.30101E+02  '
               '4.509E-01  2.352E+00  3.808E-04  3.745E-04 -1.242E-05\n',
               '-   1    4   36     1    36    3.3723E-01  3.6195E-04   '
               '3.3687E-01  0.000E+00  0.000E+00  0.000E+00  1.29801E+02  '
               '4.507E-01  2.352E+00  3.807E-04  3.739E-04 -1.198E-05\n',
               '-   1    4   37     1    37    3.3687E-01  3.6181E-04   '
               '3.3651E-01  0.000E+00  0.000E+00  0.000E+00  1.29501E+02  '
               '4.505E-01  2.352E+00  3.806E-04  3.734E-04 -1.154E-05\n',
               '-   1    4   38     1    38    3.3651E-01  3.6167E-04   '
               '3.3615E-01  0.000E+00  0.000E+00  0.000E+00  1.29200E+02  '
               '4.503E-01  2.351E+00  3.806E-04  3.728E-04 -1.113E-05\n',
               '-   1    4   39     1    39    3.3615E-01  3.6153E-04   '
               '3.3579E-01  0.000E+00  0.000E+00  0.000E+00  1.28900E+02  '
               '4.501E-01  2.351E+00  3.805E-04  3.723E-04 -1.076E-05\n',
               '-   1    4   40     1    40    3.3579E-01  3.6139E-04   '
               '3.3542E-01  0.000E+00  0.000E+00  0.000E+00  1.28600E+02  '
               '4.499E-01  2.351E+00  3.804E-04  3.718E-04 -1.041E-05\n',
               '-   1    4   41     1    41    3.3542E-01  3.6125E-04   '
               '3.3506E-01  0.000E+00  0.000E+00  0.000E+00  1.28300E+02  '
               '4.497E-01  2.351E+00  3.804E-04  3.706E-04 -9.362E-06\n',
               '-   1    4   42     1    42    3.3506E-01  3.6111E-04   '
               '3.3470E-01  0.000E+00  0.000E+00  0.000E+00  1.28000E+02  '
               '4.495E-01  2.350E+00  3.803E-04  3.690E-04 -7.883E-06\n',
               '-   1    4   43     1    43    3.3470E-01  3.6097E-04   '
               '3.3434E-01  0.000E+00  0.000E+00  0.000E+00  1.27699E+02  '
               '4.493E-01  2.350E+00  3.802E-04  3.672E-04 -6.216E-06\n',
               '-   1    4   44     1    44    3.3434E-01  3.6083E-04   '
               '3.3398E-01  0.000E+00  0.000E+00  0.000E+00  1.27399E+02  '
               '4.491E-01  2.350E+00  3.802E-04  3.652E-04 -4.353E-06\n',
               '-   1    4   45     1    45    3.3398E-01  3.6070E-04   '
               '3.3362E-01  0.000E+00  0.000E+00  0.000E+00  1.27099E+02  '
               '4.489E-01  2.350E+00  3.801E-04  3.630E-04 -2.303E-06\n',
               '-   1    4   46     1    46    3.3362E-01  3.6056E-04   '
               '3.3326E-01  0.000E+00  0.000E+00  0.000E+00  1.26799E+02  '
               '4.487E-01  2.349E+00  3.800E-04  3.606E-04 -7.877E-08\n',
               '-   1    4   47     1    47    3.3326E-01  3.6042E-04   '
               '3.3290E-01  0.000E+00  0.000E+00  0.000E+00  1.26498E+02  '
               '4.485E-01  2.349E+00  3.800E-04  3.581E-04  2.300E-06\n',
               '-   1    4   48     1    48    3.3290E-01  3.6028E-04   '
               '3.3254E-01  0.000E+00  0.000E+00  0.000E+00  1.26198E+02  '
               '4.483E-01  2.349E+00  3.799E-04  3.564E-04  3.910E-06\n',
               '-   1    4   49     1    49    3.3254E-01  3.6014E-04   '
               '3.3218E-01  0.000E+00  0.000E+00  0.000E+00  1.25898E+02  '
               '4.481E-01  2.349E+00  3.798E-04  3.560E-04  4.105E-06\n',
               '-   1    4   50     1    50    3.3218E-01  3.6000E-04   '
               '3.3182E-01  0.000E+00  0.000E+00  0.000E+00  1.25598E+02  '
               '4.479E-01  2.348E+00  3.798E-04  3.557E-04  4.295E-06\n',
               '-   1    4   51     1    51    3.3182E-01  3.5986E-04   '
               '3.3146E-01  0.000E+00  0.000E+00  0.000E+00  1.25298E+02  '
               '4.477E-01  2.348E+00  3.797E-04  3.554E-04  4.481E-06\n',
               '-   1    4   52     1    52    3.3146E-01  3.5972E-04   '
               '3.3110E-01  0.000E+00  0.000E+00  0.000E+00  1.24997E+02  '
               '4.475E-01  2.348E+00  3.796E-04  3.551E-04  4.664E-06\n',
               '-   1    4   53     1    53    3.3110E-01  3.5958E-04   '
               '3.3074E-01  0.000E+00  0.000E+00  0.000E+00  1.24697E+02  '
               '4.473E-01  2.348E+00  3.796E-04  3.547E-04  4.841E-06\n',
               '-   1    4   54     1    54    3.3074E-01  3.5944E-04   '
               '3.3038E-01  0.000E+00  0.000E+00  0.000E+00  1.24397E+02  '
               '4.471E-01  2.347E+00  3.795E-04  3.544E-04  5.013E-06\n',
               '-   1    4   55     1    55    3.3038E-01  3.5930E-04   '
               '3.3002E-01  0.000E+00  0.000E+00  0.000E+00  1.24097E+02  '
               '4.469E-01  2.347E+00  3.794E-04  3.541E-04  5.181E-06\n',
               '-   1    4   56     1    56    3.3002E-01  3.5916E-04   '
               '3.2966E-01  0.000E+00  0.000E+00  0.000E+00  1.23797E+02  '
               '4.467E-01  2.347E+00  3.794E-04  3.538E-04  5.342E-06\n',
               '-   1    4   57     1    57    3.2966E-01  3.5902E-04   '
               '3.2930E-01  0.000E+00  0.000E+00  0.000E+00  1.23496E+02  '
               '4.465E-01  2.347E+00  3.793E-04  3.535E-04  5.498E-06\n',
               '-   1    4   58     1    58    3.2930E-01  3.5888E-04   '
               '3.2894E-01  0.000E+00  0.000E+00  0.000E+00  1.23196E+02  '
               '4.463E-01  2.346E+00  3.792E-04  3.532E-04  5.647E-06\n',
               '-   1    4   59     1    59    3.2894E-01  3.5874E-04   '
               '3.2858E-01  0.000E+00  0.000E+00  0.000E+00  1.22896E+02  '
               '4.461E-01  2.346E+00  3.792E-04  3.530E-04  5.788E-06\n',
               '-   1    4   60     1    60    3.2858E-01  3.5860E-04   '
               '3.2823E-01  0.000E+00  0.000E+00  0.000E+00  1.22596E+02  '
               '4.459E-01  2.346E+00  3.791E-04  3.527E-04  5.922E-06\n',
               '-   1    4   61     1    61    3.2823E-01  3.5847E-04   '
               '3.2787E-01  0.000E+00  0.000E+00  0.000E+00  1.22296E+02  '
               '4.457E-01  2.346E+00  3.790E-04  3.524E-04  6.049E-06\n',
               '-   1    4   62     1    62    3.2787E-01  3.5833E-04   '
               '3.2751E-01  0.000E+00  0.000E+00  0.000E+00  1.21995E+02  '
               '4.454E-01  2.345E+00  3.790E-04  3.522E-04  6.166E-06\n',
               '-   1    4   63     1    63    3.2751E-01  3.5819E-04   '
               '3.2715E-01  0.000E+00  0.000E+00  0.000E+00  1.21695E+02  '
               '4.452E-01  2.345E+00  3.789E-04  3.519E-04  6.275E-06\n',
               '-   1    4   64     1    64    3.2715E-01  3.5805E-04   '
               '3.2679E-01  0.000E+00  0.000E+00  0.000E+00  1.21395E+02  '
               '4.450E-01  2.345E+00  3.788E-04  3.517E-04  6.374E-06\n',
               '-   1    4   65     1    65    3.2679E-01  3.5791E-04   '
               '3.2643E-01  0.000E+00  0.000E+00  0.000E+00  1.21095E+02  '
               '4.448E-01  2.345E+00  3.788E-04  3.530E-04  4.887E-06\n',
               '-   1    4   66     1    66    3.2643E-01  3.5777E-04   '
               '3.2608E-01  0.000E+00  0.000E+00  0.000E+00  1.20795E+02  '
               '4.446E-01  2.344E+00  3.787E-04  3.537E-04  4.087E-06\n',
               '-   1    4   67     1    67    3.2608E-01  3.5763E-04   '
               '3.2572E-01  0.000E+00  0.000E+00  0.000E+00  1.20494E+02  '
               '4.444E-01  2.344E+00  3.786E-04  3.554E-04  2.235E-06\n',
               '-   1    4   68     1    68    3.2572E-01  3.5749E-04   '
               '3.2536E-01  0.000E+00  0.000E+00  0.000E+00  1.20194E+02  '
               '4.442E-01  2.344E+00  3.786E-04  3.583E-04 -7.971E-07\n',
               '-   1    4   69     1    69    3.2536E-01  3.5735E-04   '
               '3.2500E-01  0.000E+00  0.000E+00  0.000E+00  1.19894E+02  '
               '4.440E-01  2.344E+00  3.785E-04  3.581E-04 -7.274E-07\n',
               '-   1    4   70     1    70    3.2500E-01  3.5721E-04   '
               '3.2465E-01  0.000E+00  0.000E+00  0.000E+00  1.19594E+02  '
               '4.438E-01  2.344E+00  3.784E-04  3.579E-04 -6.696E-07\n',
               '-   1    4   71     1    71    3.2465E-01  3.5707E-04   '
               '3.2429E-01  0.000E+00  0.000E+00  0.000E+00  1.19294E+02  '
               '4.436E-01  2.343E+00  3.784E-04  3.577E-04 -6.262E-07\n',
               '-   1    4   72     1    72    3.2429E-01  3.5694E-04   '
               '3.2393E-01  0.000E+00  0.000E+00  0.000E+00  1.18993E+02  '
               '4.434E-01  2.343E+00  3.783E-04  3.575E-04 -5.977E-07\n',
               '-   1    4   73     1    73    3.2393E-01  3.5680E-04   '
               '3.2358E-01  0.000E+00  0.000E+00  0.000E+00  1.18693E+02  '
               '4.432E-01  2.343E+00  3.782E-04  3.574E-04 -5.843E-07\n',
               '-   1    4   74     1    74    3.2358E-01  3.5666E-04   '
               '3.2322E-01  0.000E+00  0.000E+00  0.000E+00  1.18393E+02  '
               '4.430E-01  2.343E+00  3.782E-04  3.572E-04 -5.884E-07\n',
               '-   1    4   75     1    75    3.2322E-01  3.5652E-04   '
               '3.2286E-01  0.000E+00  0.000E+00  0.000E+00  1.18093E+02  '
               '4.428E-01  2.342E+00  3.781E-04  3.571E-04 -6.083E-07\n',
               '-   1    4   76     1    76    3.2286E-01  3.5638E-04   '
               '3.2251E-01  0.000E+00  0.000E+00  0.000E+00  1.17793E+02  '
               '4.426E-01  2.342E+00  3.780E-04  3.570E-04 -6.453E-07\n',
               '-   1    4   77     1    77    3.2251E-01  3.5624E-04   '
               '3.2215E-01  0.000E+00  0.000E+00  0.000E+00  1.17492E+02  '
               '4.424E-01  2.342E+00  3.780E-04  3.624E-04 -6.123E-06\n',
               '-   1    4   78     1    78    3.2215E-01  3.5610E-04   '
               '3.2179E-01  0.000E+00  0.000E+00  0.000E+00  1.17192E+02  '
               '4.422E-01  2.342E+00  3.779E-04  3.623E-04 -6.223E-06\n',
               '-   1    4   79     1    79    3.2179E-01  3.5596E-04   '
               '3.2144E-01  0.000E+00  0.000E+00  0.000E+00  1.16892E+02  '
               '4.420E-01  2.341E+00  3.778E-04  3.623E-04 -6.346E-06\n',
               '-   1    4   80     1    80    3.2144E-01  3.5582E-04   '
               '3.2108E-01  0.000E+00  0.000E+00  0.000E+00  1.16592E+02  '
               '4.418E-01  2.341E+00  3.778E-04  3.623E-04 -6.495E-06\n',
               '-   1    4   81     1    81    3.2108E-01  3.5569E-04   '
               '3.2073E-01  0.000E+00  0.000E+00  0.000E+00  1.16292E+02  '
               '4.416E-01  2.341E+00  3.777E-04  3.624E-04 -6.670E-06\n',
               '-   1    4   82     1    82    3.2073E-01  3.5555E-04   '
               '3.2037E-01  0.000E+00  0.000E+00  0.000E+00  1.15991E+02  '
               '4.414E-01  2.341E+00  3.777E-04  3.624E-04 -6.875E-06\n',
               '-   1    4   83     1    83    3.2037E-01  3.5541E-04   '
               '3.2002E-01  0.000E+00  0.000E+00  0.000E+00  1.15691E+02  '
               '4.412E-01  2.340E+00  3.776E-04  3.625E-04 -7.112E-06\n',
               '-   1    4   84     1    84    3.2002E-01  3.5527E-04   '
               '3.1966E-01  0.000E+00  0.000E+00  0.000E+00  1.15391E+02  '
               '4.410E-01  2.340E+00  3.775E-04  3.627E-04 -7.384E-06\n',
               '-   1    4   85     1    85    3.1966E-01  3.5513E-04   '
               '3.1931E-01  0.000E+00  0.000E+00  0.000E+00  1.15091E+02  '
               '4.408E-01  2.340E+00  3.775E-04  3.628E-04 -7.696E-06\n',
               '-   1    4   86     1    86    3.1931E-01  3.5499E-04   '
               '3.1895E-01  0.000E+00  0.000E+00  0.000E+00  1.14791E+02  '
               '4.406E-01  2.340E+00  3.774E-04  3.630E-04 -8.053E-06\n',
               '-   1    4   87     1    87    3.1895E-01  3.5485E-04   '
               '3.1860E-01  0.000E+00  0.000E+00  0.000E+00  1.14490E+02  '
               '4.404E-01  2.339E+00  3.773E-04  3.633E-04 -8.454E-06\n',
               '-   1    4   88     1    88    3.1860E-01  3.5471E-04   '
               '3.1824E-01  0.000E+00  0.000E+00  0.000E+00  1.14190E+02  '
               '4.402E-01  2.339E+00  3.773E-04  3.636E-04 -8.903E-06\n',
               '-   1    4   89     1    89    3.1824E-01  3.5458E-04   '
               '3.1789E-01  0.000E+00  0.000E+00  0.000E+00  1.13890E+02  '
               '4.400E-01  2.339E+00  3.772E-04  3.692E-04 -1.459E-05\n',
               '-   1    4   90     1    90    3.1789E-01  3.5444E-04   '
               '3.1753E-01  0.000E+00  0.000E+00  0.000E+00  1.13590E+02  '
               '4.398E-01  2.339E+00  3.771E-04  3.717E-04 -1.728E-05\n',
               '-   1    4   91     1    91    3.1753E-01  3.5430E-04   '
               '3.1718E-01  0.000E+00  0.000E+00  0.000E+00  1.13290E+02  '
               '4.396E-01  2.338E+00  3.771E-04  3.723E-04 -1.796E-05\n',
               '-   1    4   92     1    92    3.1718E-01  3.5416E-04   '
               '3.1682E-01  0.000E+00  0.000E+00  0.000E+00  1.12989E+02  '
               '4.394E-01  2.338E+00  3.770E-04  3.729E-04 -1.870E-05\n',
               '-   1    4   93     1    93    3.1682E-01  3.5402E-04   '
               '3.1647E-01  0.000E+00  0.000E+00  0.000E+00  1.12689E+02  '
               '4.392E-01  2.338E+00  3.769E-04  3.736E-04 -1.954E-05\n',
               '-   1    4   94     1    94    3.1647E-01  3.5388E-04   '
               '3.1612E-01  0.000E+00  0.000E+00  0.000E+00  1.12389E+02  '
               '4.390E-01  2.338E+00  3.769E-04  3.744E-04 -2.050E-05\n',
               '-   1    4   95     1    95    3.1612E-01  3.5374E-04   '
               '3.1576E-01  0.000E+00  0.000E+00  0.000E+00  1.12089E+02  '
               '4.388E-01  2.337E+00  3.768E-04  3.753E-04 -2.159E-05\n',
               '-   1    4   96     1    96    3.1576E-01  3.5361E-04   '
               '3.1541E-01  0.000E+00  0.000E+00  0.000E+00  1.11789E+02  '
               '4.386E-01  2.337E+00  3.767E-04  3.791E-04 -2.548E-05\n',
               '-   1    4   97     1    97    3.1541E-01  3.5347E-04   '
               '3.1505E-01  0.000E+00  0.000E+00  0.000E+00  1.11488E+02  '
               '4.384E-01  2.337E+00  3.767E-04  3.893E-04 -3.587E-05\n',
               '-   1    4   98     1    98    3.1505E-01  3.5333E-04   '
               '3.1470E-01  0.000E+00  0.000E+00  0.000E+00  1.11188E+02  '
               '4.382E-01  2.337E+00  3.766E-04  4.001E-04 -4.675E-05\n',
               '-   1    4   99     1    99    3.1470E-01  3.5319E-04   '
               '3.1435E-01  0.000E+00  0.000E+00  0.000E+00  1.10888E+02  '
               '4.380E-01  2.336E+00  3.765E-04  4.166E-04 -6.339E-05\n',
               '-   1    4  100     1   100    3.1435E-01  3.5305E-04   '
               '3.1399E-01  0.000E+00  0.000E+00  0.000E+00  1.10588E+02  '
               '4.378E-01  2.336E+00  3.765E-04  4.423E-04 -8.923E-05\n',
               '-\n',
               '-\n',
               '-\n',
               '-1\n',
               '-  VOLUMETRIC BUDGET FOR UNSATURATED ZONE BENEATH STREAMS AT '
               'END OF TIME STEP    30 STRESS PERIOD  34\n',
               '-  '
               '------------------------------------------------------------------------------------------------\n',
               '-\n',
               '-    CUMULATIVE VOLUMES             L**3    RATES FOR THIS '
               'TIME STEP         L**3/T\n',
               '-    ------------------                     '
               '------------------------\n',
               '-\n',
               '-\n',
               '-          STREAM LOSS =     30175932.0000            STREAM '
               'LOSS =        3.5994E-02\n',
               '-    CHANGE IN STORAGE =       289817.5938      CHANGE IN '
               'STORAGE =       -9.9178E-04\n',
               '-       RECHARGE TO GW =     29890260.0000         RECHARGE TO '
               'GW =        3.6985E-02\n',
               '-\n',
               '-             TOTAL IN =     30175932.0000               TOTAL '
               'IN =        3.6986E-02\n',
               '-\n',
               '-            TOTAL OUT =     30180078.0000              TOTAL '
               'OUT =        3.6985E-02\n',
               '-\n',
               '-             IN - OUT =        -4146.0000               IN - '
               'OUT =        1.8626E-08\n',
               '-\n',
               '-  PERCENT DISCREPANCY =           -0.00      PERCENT '
               'DISCREPANCY =             0.00\n',
               '-\n',
               '-\n',
               '-\n',
               '-1\n',
               '-  VOLUMETRIC BUDGET FOR ENTIRE MODEL AT END OF TIME STEP   '
               '30, STRESS PERIOD  34\n',
               '-  '
               '------------------------------------------------------------------------------\n',
               '-\n',
               '-     CUMULATIVE VOLUMES      L**3       RATES FOR THIS TIME '
               'STEP      L**3/T\n',
               '-     ------------------                 '
               '------------------------\n',
               '-\n',
               '-           IN:                                      IN:\n',
               '-           ---                                      ---\n',
               '-             STORAGE =    14452976.0000               STORAGE '
               '=           0.1720\n',
               '-       CONSTANT HEAD =           0.0000         CONSTANT HEAD '
               '=           0.0000\n',
               '-     HEAD DEP BOUNDS =           0.0000       HEAD DEP BOUNDS '
               '=           0.0000\n',
               '-      STREAM LEAKAGE =    29890188.0000        STREAM LEAKAGE '
               '=       3.6985E-02\n',
               '-\n',
               '-            TOTAL IN =    44343164.0000              TOTAL IN '
               '=           0.2090\n',
               '-\n',
               '-          OUT:                                     OUT:\n',
               '-          ----                                     ----\n',
               '-             STORAGE =    15953330.0000               STORAGE '
               '=           0.0000\n',
               '-       CONSTANT HEAD =           0.0000         CONSTANT HEAD '
               '=           0.0000\n',
               '-     HEAD DEP BOUNDS =    28389652.0000       HEAD DEP BOUNDS '
               '=           0.2089\n',
               '-      STREAM LEAKAGE =           0.0000        STREAM LEAKAGE '
               '=           0.0000\n',
               '-\n',
               '-           TOTAL OUT =    44342984.0000             TOTAL OUT '
               '=           0.2089\n',
               '-\n',
               '-            IN - OUT =         180.0000              IN - OUT '
               '=       7.4625E-05\n',
               '-\n',
               '- PERCENT DISCREPANCY =           0.00     PERCENT DISCREPANCY '
               '=           0.04\n',
               '-\n',
               '-\n',
               '-\n',
               '-\n',
               '-\n',
               '-\n',
               '-         TIME SUMMARY AT END OF TIME STEP   30 IN STRESS '
               'PERIOD   34\n',
               '-                    SECONDS     MINUTES      HOURS       '
               'DAYS        YEARS\n',
               '-                    '
               '-----------------------------------------------------------\n',
               '-   TIME STEP LENGTH 2.49961E+05  4166.0      69.434      '
               '2.8931     7.92080E-03\n',
               '- STRESS PERIOD TIME 2.59200E+06  43200.      720.00      '
               '30.000     8.21355E-02\n',
               '-         TOTAL TIME 8.81280E+07 1.46880E+06  24480.      '
               '1020.0      2.7926    \n',
               '-1\n',
               '-1\n',
               '-                            STRESS PERIOD NO.   35, LENGTH '
               '=   2592000.    \n',
               '-                            '
               '-----------------------------------------------\n',
               '-\n',
               '-                              NUMBER OF TIME STEPS =    30\n',
               '-\n',
               '-                               MULTIPLIER FOR DELT =     '
               '1.100\n',
               '-\n',
               '-                            INITIAL TIME STEP SIZE =   '
               '15757.40    \n',
               '-\n',
               '- REUSING NON-PARAMETER GHB CELLS FROM LAST STRESS PERIOD\n',
               '-\n',
               '-      7 GHB CELLS\n',
               '- \n',
               '- SOLVING FOR HEAD \n',
               '-\n',
               '- NO OUTPUT CONTROL FOR STRESS PERIOD   35   TIME STEP    1\n',
               '- \n',
               '- SOLVING FOR HEAD \n',
               '-\n',
               '- NO OUTPUT CONTROL FOR STRESS PERIOD   35   TIME STEP    2\n',
               '- \n',
               '- SOLVING FOR HEAD \n',
               '-\n',
               '- NO OUTPUT CONTROL FOR STRESS PERIOD   35   TIME STEP    3\n',
               '- \n',
               '- SOLVING FOR HEAD \n',
               '-\n',
               '- NO OUTPUT CONTROL FOR STRESS PERIOD   35   TIME STEP    4\n',
               '- \n',
               '- SOLVING FOR HEAD \n',
               '-\n',
               '- NO OUTPUT CONTROL FOR STRESS PERIOD   35   TIME STEP    5\n',
               '- \n',
               '- SOLVING FOR HEAD \n',
               '-\n',
               '- NO OUTPUT CONTROL FOR STRESS PERIOD   35   TIME STEP    6\n',
               '- \n',
               '- SOLVING FOR HEAD \n',
               '-\n',
               '- NO OUTPUT CONTROL FOR STRESS PERIOD   35   TIME STEP    7\n',
               '- \n',
               '- SOLVING FOR HEAD \n',
               '-\n',
               '- NO OUTPUT CONTROL FOR STRESS PERIOD   35   TIME STEP    8\n',
               '- \n',
               '- SOLVING FOR HEAD \n',
               '-\n',
               '- NO OUTPUT CONTROL FOR STRESS PERIOD   35   TIME STEP    9\n',
               '- \n',
               '- SOLVING FOR HEAD \n',
               '-\n',
               '- NO OUTPUT CONTROL FOR STRESS PERIOD   35   TIME STEP   10\n',
               '- \n',
               '- SOLVING FOR HEAD \n',
               '-\n',
               '- NO OUTPUT CONTROL FOR STRESS PERIOD   35   TIME STEP   11\n',
               '- \n',
               '- SOLVING FOR HEAD \n',
               '-\n',
               '- NO OUTPUT CONTROL FOR STRESS PERIOD   35   TIME STEP   12\n',
               '- \n',
               '- SOLVING FOR HEAD \n',
               '-\n',
               '- NO OUTPUT CONTROL FOR STRESS PERIOD   35   TIME STEP   13\n',
               '- \n',
               '- SOLVING FOR HEAD \n',
               '-\n',
               '- NO OUTPUT CONTROL FOR STRESS PERIOD   35   TIME STEP   14\n',
               '- \n',
               '- SOLVING FOR HEAD \n',
               '-\n',
               '- NO OUTPUT CONTROL FOR STRESS PERIOD   35   TIME STEP   15\n',
               '- \n',
               '- SOLVING FOR HEAD \n',
               '-\n',
               '- NO OUTPUT CONTROL FOR STRESS PERIOD   35   TIME STEP   16\n',
               '- \n',
               '- SOLVING FOR HEAD \n',
               '-\n',
               '- NO OUTPUT CONTROL FOR STRESS PERIOD   35   TIME STEP   17\n',
               '- \n',
               '- SOLVING FOR HEAD \n',
               '-\n',
               '- NO OUTPUT CONTROL FOR STRESS PERIOD   35   TIME STEP   18\n',
               '- \n',
               '- SOLVING FOR HEAD \n',
               '-\n',
               '- NO OUTPUT CONTROL FOR STRESS PERIOD   35   TIME STEP   19\n',
               '- \n',
               '- SOLVING FOR HEAD \n',
               '-\n',
               '- NO OUTPUT CONTROL FOR STRESS PERIOD   35   TIME STEP   20\n',
               '- \n',
               '- SOLVING FOR HEAD \n',
               '-\n',
               '- NO OUTPUT CONTROL FOR STRESS PERIOD   35   TIME STEP   21\n',
               '- \n',
               '- SOLVING FOR HEAD \n',
               '-\n',
               '- NO OUTPUT CONTROL FOR STRESS PERIOD   35   TIME STEP   22\n',
               '- \n',
               '- SOLVING FOR HEAD \n',
               '-\n',
               '- NO OUTPUT CONTROL FOR STRESS PERIOD   35   TIME STEP   23\n',
               '- \n',
               '- SOLVING FOR HEAD \n',
               '-\n',
               '- NO OUTPUT CONTROL FOR STRESS PERIOD   35   TIME STEP   24\n',
               '- \n',
               '- SOLVING FOR HEAD \n',
               '-\n',
               '- NO OUTPUT CONTROL FOR STRESS PERIOD   35   TIME STEP   25\n',
               '- \n',
               '- SOLVING FOR HEAD \n',
               '-\n',
               '- NO OUTPUT CONTROL FOR STRESS PERIOD   35   TIME STEP   26\n',
               '- \n',
               '- SOLVING FOR HEAD \n',
               '-\n',
               '- NO OUTPUT CONTROL FOR STRESS PERIOD   35   TIME STEP   27\n',
               '- \n',
               '- SOLVING FOR HEAD \n',
               '-\n',
               '- NO OUTPUT CONTROL FOR STRESS PERIOD   35   TIME STEP   28\n',
               '- \n',
               '- SOLVING FOR HEAD \n',
               '-\n',
               '- NO OUTPUT CONTROL FOR STRESS PERIOD   35   TIME STEP   29\n',
               '- \n',
               '- SOLVING FOR HEAD \n',
               '-\n',
               '- OUTPUT CONTROL FOR STRESS PERIOD   35   TIME STEP   30\n',
               '-    PRINT HEAD FOR ALL LAYERS\n',
               '-    PRINT BUDGET\n',
               '-    SAVE BUDGET\n',
               '-\n',
               '-  HEAD DEP BOUNDS   PERIOD   35   STEP  30\n',
               '- BOUNDARY      1   LAYER   1   ROW     1   COL   100   RATE   '
               '-3.045798E-02\n',
               '- BOUNDARY      2   LAYER   1   ROW     2   COL   100   RATE   '
               '-3.045645E-02\n',
               '- BOUNDARY      3   LAYER   1   ROW     3   COL   100   RATE   '
               '-3.015662E-02\n',
               '- BOUNDARY      4   LAYER   1   ROW     4   COL   100   RATE   '
               '-2.145485E-02\n',
               '- BOUNDARY      5   LAYER   1   ROW     5   COL   100   RATE   '
               '-3.015662E-02\n',
               '- BOUNDARY      6   LAYER   1   ROW     6   COL   100   RATE   '
               '-3.045645E-02\n',
               '- BOUNDARY      7   LAYER   1   ROW     7   COL   100   RATE   '
               '-3.045798E-02\n',
               '-\n',
               '-\n',
               '-\n',
               '- STREAM LISTING     PERIOD     35   STEP       30\n',
               '-\n',
               '- LAYER ROW COL. STREAM  RCH.   FLOW INTO    STREAM     FLOW '
               'OUT OF   OVRLND.    DIRECT     STREAM      STREAM      '
               'STREAM     STREAM  STREAMBED   FLOW TO   CHNG. UNSAT. \n',
               '-                SEG.NO.  NO.   STRM. RCH.    LOSS       STRM. '
               'RCH.   RUNOFF     PRECIP       ET         HEAD        '
               'DEPTH      WIDTH  CONDCTNC.   WAT. TAB.\n',
               '-\n',
               '-   1    4    1     1     1    5.2997E-02  1.8176E-04   '
               '5.2816E-02  0.000E+00  0.000E+00  0.000E+00  1.40076E+02  '
               '2.264E-01  1.639E+00  2.502E-04  2.687E-04 -8.689E-05\n',
               '-   1    4    2     1     2    5.2816E-02  1.8146E-04   '
               '5.2634E-02  0.000E+00  0.000E+00  0.000E+00  1.39776E+02  '
               '2.261E-01  1.637E+00  2.499E-04  2.639E-04 -8.247E-05\n',
               '-   1    4    3     1     3    5.2634E-02  1.8115E-04   '
               '5.2453E-02  0.000E+00  0.000E+00  0.000E+00  1.39476E+02  '
               '2.258E-01  1.635E+00  2.495E-04  2.604E-04 -7.927E-05\n',
               '-   1    4    4     1     4    5.2453E-02  1.8084E-04   '
               '5.2272E-02  0.000E+00  0.000E+00  0.000E+00  1.39176E+02  '
               '2.255E-01  1.632E+00  2.492E-04  2.565E-04 -7.566E-05\n',
               '-   1    4    5     1     5    5.2272E-02  1.8054E-04   '
               '5.2092E-02  0.000E+00  0.000E+00  0.000E+00  1.38875E+02  '
               '2.252E-01  1.630E+00  2.489E-04  2.514E-04 -7.091E-05\n',
               '-   1    4    6     1     6    5.2092E-02  1.8023E-04   '
               '5.1911E-02  0.000E+00  0.000E+00  0.000E+00  1.38575E+02  '
               '2.250E-01  1.628E+00  2.486E-04  2.477E-04 -6.745E-05\n',
               '-   1    4    7     1     7    5.1911E-02  1.7992E-04   '
               '5.1731E-02  0.000E+00  0.000E+00  0.000E+00  1.38275E+02  '
               '2.247E-01  1.626E+00  2.483E-04  2.441E-04 -6.421E-05\n',
               '-   1    4    8     1     8    5.1731E-02  1.7962E-04   '
               '5.1552E-02  0.000E+00  0.000E+00  0.000E+00  1.37974E+02  '
               '2.244E-01  1.624E+00  2.479E-04  2.406E-04 -6.100E-05\n',
               '-   1    4    9     1     9    5.1552E-02  1.7931E-04   '
               '5.1373E-02  0.000E+00  0.000E+00  0.000E+00  1.37674E+02  '
               '2.241E-01  1.622E+00  2.476E-04  2.357E-04 -5.643E-05\n',
               '-   1    4   10     1    10    5.1373E-02  1.7900E-04   '
               '5.1194E-02  0.000E+00  0.000E+00  0.000E+00  1.37374E+02  '
               '2.238E-01  1.620E+00  2.473E-04  2.252E-04 -4.622E-05\n',
               '-   1    4   11     1    11    5.1194E-02  1.7870E-04   '
               '5.1015E-02  0.000E+00  0.000E+00  0.000E+00  1.37074E+02  '
               '2.235E-01  1.618E+00  2.470E-04  2.217E-04 -4.300E-05\n',
               '-   1    4   12     1    12    5.1015E-02  1.7839E-04   '
               '5.0836E-02  0.000E+00  0.000E+00  0.000E+00  1.36773E+02  '
               '2.232E-01  1.616E+00  2.466E-04  2.182E-04 -3.981E-05\n',
               '-   1    4   13     1    13    5.0836E-02  1.7808E-04   '
               '5.0658E-02  0.000E+00  0.000E+00  0.000E+00  1.36473E+02  '
               '2.229E-01  1.613E+00  2.463E-04  2.146E-04 -3.656E-05\n',
               '-   1    4   14     1    14    5.0658E-02  1.7778E-04   '
               '5.0481E-02  0.000E+00  0.000E+00  0.000E+00  1.36173E+02  '
               '2.226E-01  1.611E+00  2.460E-04  2.107E-04 -3.292E-05\n',
               '-   1    4   15     1    15    5.0481E-02  1.7747E-04   '
               '5.0303E-02  0.000E+00  0.000E+00  0.000E+00  1.35872E+02  '
               '2.223E-01  1.609E+00  2.457E-04  2.068E-04 -2.931E-05\n',
               '-   1    4   16     1    16    5.0303E-02  1.7716E-04   '
               '5.0126E-02  0.000E+00  0.000E+00  0.000E+00  1.35572E+02  '
               '2.220E-01  1.607E+00  2.453E-04  2.029E-04 -2.577E-05\n',
               '-   1    4   17     1    17    5.0126E-02  1.7686E-04   '
               '4.9949E-02  0.000E+00  0.000E+00  0.000E+00  1.35272E+02  '
               '2.217E-01  1.605E+00  2.450E-04  1.977E-04 -2.082E-05\n',
               '-   1    4   18     1    18    4.9949E-02  1.7655E-04   '
               '4.9773E-02  0.000E+00  0.000E+00  0.000E+00  1.34971E+02  '
               '2.214E-01  1.603E+00  2.447E-04  1.923E-04 -1.571E-05\n',
               '-   1    4   19     1    19    4.9773E-02  1.7624E-04   '
               '4.9596E-02  0.000E+00  0.000E+00  0.000E+00  1.34671E+02  '
               '2.211E-01  1.601E+00  2.444E-04  1.900E-04 -1.374E-05\n',
               '-   1    4   20     1    20    4.9596E-02  1.7594E-04   '
               '4.9420E-02  0.000E+00  0.000E+00  0.000E+00  1.34371E+02  '
               '2.208E-01  1.599E+00  2.440E-04  1.879E-04 -1.193E-05\n',
               '-   1    4   21     1    21    4.9420E-02  1.7563E-04   '
               '4.9245E-02  0.000E+00  0.000E+00  0.000E+00  1.34071E+02  '
               '2.206E-01  1.596E+00  2.437E-04  1.860E-04 -1.037E-05\n',
               '-   1    4   22     1    22    4.9245E-02  1.7533E-04   '
               '4.9069E-02  0.000E+00  0.000E+00  0.000E+00  1.33770E+02  '
               '2.203E-01  1.594E+00  2.434E-04  1.842E-04 -8.839E-06\n',
               '-   1    4   23     1    23    4.9069E-02  1.7502E-04   '
               '4.8894E-02  0.000E+00  0.000E+00  0.000E+00  1.33470E+02  '
               '2.200E-01  1.592E+00  2.431E-04  1.825E-04 -7.520E-06\n',
               '-   1    4   24     1    24    4.8894E-02  1.7471E-04   '
               '4.8720E-02  0.000E+00  0.000E+00  0.000E+00  1.33170E+02  '
               '2.197E-01  1.590E+00  2.427E-04  1.820E-04 -7.249E-06\n',
               '-   1    4   25     1    25    4.8720E-02  1.7441E-04   '
               '4.8545E-02  0.000E+00  0.000E+00  0.000E+00  1.32869E+02  '
               '2.194E-01  1.588E+00  2.424E-04  1.814E-04 -6.974E-06\n',
               '-   1    4   26     1    26    4.8545E-02  1.7410E-04   '
               '4.8371E-02  0.000E+00  0.000E+00  0.000E+00  1.32569E+02  '
               '2.191E-01  1.586E+00  2.421E-04  1.808E-04 -6.713E-06\n',
               '-   1    4   27     1    27    4.8371E-02  1.7380E-04   '
               '4.8197E-02  0.000E+00  0.000E+00  0.000E+00  1.32269E+02  '
               '2.188E-01  1.584E+00  2.418E-04  1.802E-04 -6.448E-06\n',
               '-   1    4   28     1    28    4.8197E-02  1.7349E-04   '
               '4.8024E-02  0.000E+00  0.000E+00  0.000E+00  1.31968E+02  '
               '2.185E-01  1.581E+00  2.414E-04  1.797E-04 -6.178E-06\n',
               '-   1    4   29     1    29    4.8024E-02  1.7318E-04   '
               '4.7851E-02  0.000E+00  0.000E+00  0.000E+00  1.31668E+02  '
               '2.182E-01  1.579E+00  2.411E-04  1.791E-04 -5.904E-06\n',
               '-   1    4   30     1    30    4.7851E-02  1.7288E-04   '
               '4.7678E-02  0.000E+00  0.000E+00  0.000E+00  1.31368E+02  '
               '2.179E-01  1.577E+00  2.408E-04  1.785E-04 -5.625E-06\n',
               '-   1    4   31     1    31    4.7678E-02  1.7257E-04   '
               '4.7505E-02  0.000E+00  0.000E+00  0.000E+00  1.31068E+02  '
               '2.176E-01  1.575E+00  2.405E-04  1.779E-04 -5.343E-06\n',
               '-   1    4   32     1    32    4.7505E-02  1.7227E-04   '
               '4.7333E-02  0.000E+00  0.000E+00  0.000E+00  1.30767E+02  '
               '2.173E-01  1.573E+00  2.401E-04  1.773E-04 -5.058E-06\n',
               '-   1    4   33     1    33    4.7333E-02  1.7196E-04   '
               '4.7161E-02  0.000E+00  0.000E+00  0.000E+00  1.30467E+02  '
               '2.170E-01  1.571E+00  2.398E-04  1.767E-04 -4.772E-06\n',
               '-   1    4   34     1    34    4.7161E-02  1.7166E-04   '
               '4.6989E-02  0.000E+00  0.000E+00  0.000E+00  1.30167E+02  '
               '2.167E-01  1.569E+00  2.395E-04  1.761E-04 -4.483E-06\n',
               '-   1    4   35     1    35    4.6989E-02  1.7135E-04   '
               '4.6818E-02  0.000E+00  0.000E+00  0.000E+00  1.29866E+02  '
               '2.164E-01  1.566E+00  2.391E-04  1.755E-04 -4.192E-06\n',
               '-   1    4   36     1    36    4.6818E-02  1.7104E-04   '
               '4.6647E-02  0.000E+00  0.000E+00  0.000E+00  1.29566E+02  '
               '2.161E-01  1.564E+00  2.388E-04  1.749E-04 -3.899E-06\n',
               '-   1    4   37     1    37    4.6647E-02  1.7074E-04   '
               '4.6476E-02  0.000E+00  0.000E+00  0.000E+00  1.29266E+02  '
               '2.158E-01  1.562E+00  2.385E-04  1.743E-04 -3.604E-06\n',
               '-   1    4   38     1    38    4.6476E-02  1.7043E-04   '
               '4.6306E-02  0.000E+00  0.000E+00  0.000E+00  1.28966E+02  '
               '2.155E-01  1.560E+00  2.382E-04  1.737E-04 -3.306E-06\n',
               '-   1    4   39     1    39    4.6306E-02  1.7013E-04   '
               '4.6136E-02  0.000E+00  0.000E+00  0.000E+00  1.28665E+02  '
               '2.152E-01  1.558E+00  2.378E-04  1.731E-04 -3.009E-06\n',
               '-   1    4   40     1    40    4.6136E-02  1.6982E-04   '
               '4.5966E-02  0.000E+00  0.000E+00  0.000E+00  1.28365E+02  '
               '2.149E-01  1.556E+00  2.375E-04  1.725E-04 -2.711E-06\n',
               '-   1    4   41     1    41    4.5966E-02  1.6952E-04   '
               '4.5796E-02  0.000E+00  0.000E+00  0.000E+00  1.28065E+02  '
               '2.146E-01  1.554E+00  2.372E-04  1.719E-04 -2.413E-06\n',
               '-   1    4   42     1    42    4.5796E-02  1.6921E-04   '
               '4.5627E-02  0.000E+00  0.000E+00  0.000E+00  1.27764E+02  '
               '2.143E-01  1.551E+00  2.368E-04  1.713E-04 -2.125E-06\n',
               '-   1    4   43     1    43    4.5627E-02  1.6891E-04   '
               '4.5458E-02  0.000E+00  0.000E+00  0.000E+00  1.27464E+02  '
               '2.140E-01  1.549E+00  2.365E-04  1.708E-04 -1.859E-06\n',
               '-   1    4   44     1    44    4.5458E-02  1.6860E-04   '
               '4.5290E-02  0.000E+00  0.000E+00  0.000E+00  1.27164E+02  '
               '2.137E-01  1.547E+00  2.362E-04  1.702E-04 -1.596E-06\n',
               '-   1    4   45     1    45    4.5290E-02  1.6830E-04   '
               '4.5121E-02  0.000E+00  0.000E+00  0.000E+00  1.26863E+02  '
               '2.134E-01  1.545E+00  2.359E-04  1.697E-04 -1.425E-06\n',
               '-   1    4   46     1    46    4.5121E-02  1.6799E-04   '
               '4.4953E-02  0.000E+00  0.000E+00  0.000E+00  1.26563E+02  '
               '2.131E-01  1.543E+00  2.355E-04  1.696E-04 -1.565E-06\n',
               '-   1    4   47     1    47    4.4953E-02  1.6769E-04   '
               '4.4786E-02  0.000E+00  0.000E+00  0.000E+00  1.26263E+02  '
               '2.129E-01  1.541E+00  2.352E-04  1.694E-04 -1.740E-06\n',
               '-   1    4   48     1    48    4.4786E-02  1.6738E-04   '
               '4.4618E-02  0.000E+00  0.000E+00  0.000E+00  1.25963E+02  '
               '2.126E-01  1.538E+00  2.349E-04  1.693E-04 -1.951E-06\n',
               '-   1    4   49     1    49    4.4618E-02  1.6708E-04   '
               '4.4451E-02  0.000E+00  0.000E+00  0.000E+00  1.25662E+02  '
               '2.123E-01  1.536E+00  2.345E-04  1.692E-04 -2.101E-06\n',
               '-   1    4   50     1    50    4.4451E-02  1.6677E-04   '
               '4.4284E-02  0.000E+00  0.000E+00  0.000E+00  1.25362E+02  '
               '2.120E-01  1.534E+00  2.342E-04  1.686E-04 -1.825E-06\n',
               '-   1    4   51     1    51    4.4284E-02  1.6647E-04   '
               '4.4118E-02  0.000E+00  0.000E+00  0.000E+00  1.25062E+02  '
               '2.117E-01  1.532E+00  2.339E-04  1.680E-04 -1.552E-06\n',
               '-   1    4   52     1    52    4.4118E-02  1.6616E-04   '
               '4.3952E-02  0.000E+00  0.000E+00  0.000E+00  1.24761E+02  '
               '2.114E-01  1.530E+00  2.336E-04  1.674E-04 -1.283E-06\n',
               '-   1    4   53     1    53    4.3952E-02  1.6586E-04   '
               '4.3786E-02  0.000E+00  0.000E+00  0.000E+00  1.24461E+02  '
               '2.111E-01  1.528E+00  2.332E-04  1.669E-04 -1.018E-06\n',
               '-   1    4   54     1    54    4.3786E-02  1.6555E-04   '
               '4.3620E-02  0.000E+00  0.000E+00  0.000E+00  1.24161E+02  '
               '2.108E-01  1.525E+00  2.329E-04  1.663E-04 -7.565E-07\n',
               '-   1    4   55     1    55    4.3620E-02  1.6525E-04   '
               '4.3455E-02  0.000E+00  0.000E+00  0.000E+00  1.23860E+02  '
               '2.105E-01  1.523E+00  2.326E-04  1.657E-04 -4.997E-07\n',
               '-   1    4   56     1    56    4.3455E-02  1.6494E-04   '
               '4.3290E-02  0.000E+00  0.000E+00  0.000E+00  1.23560E+02  '
               '2.102E-01  1.521E+00  2.322E-04  1.652E-04 -2.477E-07\n',
               '-   1    4   57     1    57    4.3290E-02  1.6464E-04   '
               '4.3126E-02  0.000E+00  0.000E+00  0.000E+00  1.23260E+02  '
               '2.099E-01  1.519E+00  2.319E-04  1.651E-04 -5.081E-07\n',
               '-   1    4   58     1    58    4.3126E-02  1.6433E-04   '
               '4.2961E-02  0.000E+00  0.000E+00  0.000E+00  1.22960E+02  '
               '2.096E-01  1.517E+00  2.316E-04  1.654E-04 -1.085E-06\n',
               '-   1    4   59     1    59    4.2961E-02  1.6403E-04   '
               '4.2797E-02  0.000E+00  0.000E+00  0.000E+00  1.22659E+02  '
               '2.093E-01  1.515E+00  2.312E-04  1.651E-04 -1.089E-06\n',
               '-   1    4   60     1    60    4.2797E-02  1.6372E-04   '
               '4.2633E-02  0.000E+00  0.000E+00  0.000E+00  1.22359E+02  '
               '2.090E-01  1.512E+00  2.309E-04  1.646E-04 -8.360E-07\n',
               '-   1    4   61     1    61    4.2633E-02  1.6342E-04   '
               '4.2470E-02  0.000E+00  0.000E+00  0.000E+00  1.22059E+02  '
               '2.087E-01  1.510E+00  2.306E-04  1.640E-04 -5.887E-07\n',
               '-   1    4   62     1    62    4.2470E-02  1.6311E-04   '
               '4.2307E-02  0.000E+00  0.000E+00  0.000E+00  1.21758E+02  '
               '2.084E-01  1.508E+00  2.302E-04  1.635E-04 -3.479E-07\n',
               '-   1    4   63     1    63    4.2307E-02  1.6281E-04   '
               '4.2144E-02  0.000E+00  0.000E+00  0.000E+00  1.21458E+02  '
               '2.081E-01  1.506E+00  2.299E-04  1.637E-04 -8.448E-07\n',
               '-   1    4   64     1    64    4.2144E-02  1.6250E-04   '
               '4.1982E-02  0.000E+00  0.000E+00  0.000E+00  1.21158E+02  '
               '2.078E-01  1.504E+00  2.296E-04  1.638E-04 -1.297E-06\n',
               '-   1    4   65     1    65    4.1982E-02  1.6220E-04   '
               '4.1819E-02  0.000E+00  0.000E+00  0.000E+00  1.20857E+02  '
               '2.075E-01  1.502E+00  2.292E-04  1.633E-04 -1.059E-06\n',
               '-   1    4   66     1    66    4.1819E-02  1.6190E-04   '
               '4.1657E-02  0.000E+00  0.000E+00  0.000E+00  1.20557E+02  '
               '2.072E-01  1.499E+00  2.289E-04  1.604E-04  1.514E-06\n',
               '-   1    4   67     1    67    4.1657E-02  1.6159E-04   '
               '4.1496E-02  0.000E+00  0.000E+00  0.000E+00  1.20257E+02  '
               '2.069E-01  1.497E+00  2.286E-04  1.575E-04  4.118E-06\n',
               '-   1    4   68     1    68    4.1496E-02  1.6129E-04   '
               '4.1335E-02  0.000E+00  0.000E+00  0.000E+00  1.19957E+02  '
               '2.066E-01  1.495E+00  2.282E-04  1.590E-04  2.252E-06\n',
               '-   1    4   69     1    69    4.1335E-02  1.6098E-04   '
               '4.1174E-02  0.000E+00  0.000E+00  0.000E+00  1.19656E+02  '
               '2.062E-01  1.493E+00  2.279E-04  1.630E-04 -2.006E-06\n',
               '-   1    4   70     1    70    4.1174E-02  1.6068E-04   '
               '4.1013E-02  0.000E+00  0.000E+00  0.000E+00  1.19356E+02  '
               '2.059E-01  1.491E+00  2.276E-04  1.648E-04 -4.119E-06\n',
               '-   1    4   71     1    71    4.1013E-02  1.6037E-04   '
               '4.0853E-02  0.000E+00  0.000E+00  0.000E+00  1.19056E+02  '
               '2.056E-01  1.488E+00  2.272E-04  1.678E-04 -7.433E-06\n',
               '-   1    4   72     1    72    4.0853E-02  1.6007E-04   '
               '4.0693E-02  0.000E+00  0.000E+00  0.000E+00  1.18755E+02  '
               '2.053E-01  1.486E+00  2.269E-04  1.722E-04 -1.209E-05\n',
               '-   1    4   73     1    73    4.0693E-02  1.5977E-04   '
               '4.0533E-02  0.000E+00  0.000E+00  0.000E+00  1.18455E+02  '
               '2.050E-01  1.484E+00  2.266E-04  1.767E-04 -1.697E-05\n',
               '-   1    4   74     1    74    4.0533E-02  1.5946E-04   '
               '4.0373E-02  0.000E+00  0.000E+00  0.000E+00  1.18155E+02  '
               '2.047E-01  1.482E+00  2.262E-04  1.796E-04 -2.011E-05\n',
               '-   1    4   75     1    75    4.0373E-02  1.5916E-04   '
               '4.0214E-02  0.000E+00  0.000E+00  0.000E+00  1.17854E+02  '
               '2.044E-01  1.480E+00  2.259E-04  1.844E-04 -2.527E-05\n',
               '-   1    4   76     1    76    4.0214E-02  1.5885E-04   '
               '4.0055E-02  0.000E+00  0.000E+00  0.000E+00  1.17554E+02  '
               '2.041E-01  1.478E+00  2.256E-04  1.896E-04 -3.070E-05\n',
               '-   1    4   77     1    77    4.0055E-02  1.5855E-04   '
               '3.9897E-02  0.000E+00  0.000E+00  0.000E+00  1.17254E+02  '
               '2.038E-01  1.475E+00  2.252E-04  1.939E-04 -3.539E-05\n',
               '-   1    4   78     1    78    3.9897E-02  1.5825E-04   '
               '3.9738E-02  0.000E+00  0.000E+00  0.000E+00  1.16954E+02  '
               '2.035E-01  1.473E+00  2.249E-04  1.993E-04 -4.104E-05\n',
               '-   1    4   79     1    79    3.9738E-02  1.5794E-04   '
               '3.9581E-02  0.000E+00  0.000E+00  0.000E+00  1.16653E+02  '
               '2.032E-01  1.471E+00  2.246E-04  2.061E-04 -4.818E-05\n',
               '-   1    4   80     1    80    3.9581E-02  1.5764E-04   '
               '3.9423E-02  0.000E+00  0.000E+00  0.000E+00  1.16353E+02  '
               '2.029E-01  1.469E+00  2.242E-04  2.211E-04 -6.342E-05\n',
               '-   1    4   81     1    81    3.9423E-02  1.5733E-04   '
               '3.9266E-02  0.000E+00  0.000E+00  0.000E+00  1.16053E+02  '
               '2.026E-01  1.467E+00  2.239E-04  2.269E-04 -6.958E-05\n',
               '-   1    4   82     1    82    3.9266E-02  1.5703E-04   '
               '3.9109E-02  0.000E+00  0.000E+00  0.000E+00  1.15752E+02  '
               '2.023E-01  1.464E+00  2.236E-04  2.340E-04 -7.699E-05\n',
               '-   1    4   83     1    83    3.9109E-02  1.5673E-04   '
               '3.8952E-02  0.000E+00  0.000E+00  0.000E+00  1.15452E+02  '
               '2.020E-01  1.462E+00  2.232E-04  2.403E-04 -8.354E-05\n',
               '-   1    4   84     1    84    3.8952E-02  1.5642E-04   '
               '3.8795E-02  0.000E+00  0.000E+00  0.000E+00  1.15152E+02  '
               '2.017E-01  1.460E+00  2.229E-04  2.483E-04 -9.184E-05\n',
               '-   1    4   85     1    85    3.8795E-02  1.5612E-04   '
               '3.8639E-02  0.000E+00  0.000E+00  0.000E+00  1.14851E+02  '
               '2.014E-01  1.458E+00  2.225E-04  2.555E-04 -9.939E-05\n',
               '-   1    4   86     1    86    3.8639E-02  1.5581E-04   '
               '3.8483E-02  0.000E+00  0.000E+00  0.000E+00  1.14551E+02  '
               '2.011E-01  1.456E+00  2.222E-04  2.635E-04 -1.077E-04\n',
               '-   1    4   87     1    87    3.8483E-02  1.5551E-04   '
               '3.8328E-02  0.000E+00  0.000E+00  0.000E+00  1.14251E+02  '
               '2.008E-01  1.453E+00  2.219E-04  2.722E-04 -1.167E-04\n',
               '-   1    4   88     1    88    3.8328E-02  1.5521E-04   '
               '3.8173E-02  0.000E+00  0.000E+00  0.000E+00  1.13950E+02  '
               '2.005E-01  1.451E+00  2.215E-04  2.810E-04 -1.258E-04\n',
               '-   1    4   89     1    89    3.8173E-02  1.5490E-04   '
               '3.8018E-02  0.000E+00  0.000E+00  0.000E+00  1.13650E+02  '
               '2.002E-01  1.449E+00  2.212E-04  2.908E-04 -1.359E-04\n',
               '-   1    4   90     1    90    3.8018E-02  1.5460E-04   '
               '3.7863E-02  0.000E+00  0.000E+00  0.000E+00  1.13350E+02  '
               '1.999E-01  1.447E+00  2.209E-04  3.000E-04 -1.454E-04\n',
               '-   1    4   91     1    91    3.7863E-02  1.5430E-04   '
               '3.7709E-02  0.000E+00  0.000E+00  0.000E+00  1.13050E+02  '
               '1.996E-01  1.444E+00  2.205E-04  3.103E-04 -1.560E-04\n',
               '-   1    4   92     1    92    3.7709E-02  1.5399E-04   '
               '3.7555E-02  0.000E+00  0.000E+00  0.000E+00  1.12749E+02  '
               '1.993E-01  1.442E+00  2.202E-04  3.212E-04 -1.672E-04\n',
               '-   1    4   93     1    93    3.7555E-02  1.5369E-04   '
               '3.7401E-02  0.000E+00  0.000E+00  0.000E+00  1.12449E+02  '
               '1.990E-01  1.440E+00  2.199E-04  3.326E-04 -1.789E-04\n',
               '-   1    4   94     1    94    3.7401E-02  1.5339E-04   '
               '3.7248E-02  0.000E+00  0.000E+00  0.000E+00  1.12149E+02  '
               '1.987E-01  1.438E+00  2.195E-04  3.444E-04 -1.910E-04\n',
               '-   1    4   95     1    95    3.7248E-02  1.5308E-04   '
               '3.7095E-02  0.000E+00  0.000E+00  0.000E+00  1.11848E+02  '
               '1.983E-01  1.436E+00  2.192E-04  3.554E-04 -2.023E-04\n',
               '-   1    4   96     1    96    3.7095E-02  1.5278E-04   '
               '3.6942E-02  0.000E+00  0.000E+00  0.000E+00  1.11548E+02  '
               '1.980E-01  1.433E+00  2.188E-04  3.640E-04 -2.112E-04\n',
               '-   1    4   97     1    97    3.6942E-02  1.5248E-04   '
               '3.6790E-02  0.000E+00  0.000E+00  0.000E+00  1.11248E+02  '
               '1.977E-01  1.431E+00  2.185E-04  3.702E-04 -2.178E-04\n',
               '-   1    4   98     1    98    3.6790E-02  1.5217E-04   '
               '3.6637E-02  0.000E+00  0.000E+00  0.000E+00  1.10947E+02  '
               '1.974E-01  1.429E+00  2.182E-04  3.810E-04 -2.288E-04\n',
               '-   1    4   99     1    99    3.6637E-02  1.5187E-04   '
               '3.6485E-02  0.000E+00  0.000E+00  0.000E+00  1.10647E+02  '
               '1.971E-01  1.427E+00  2.178E-04  3.824E-04 -2.306E-04\n',
               '-   1    4  100     1   100    3.6485E-02  1.5157E-04   '
               '3.6334E-02  0.000E+00  0.000E+00  0.000E+00  1.10347E+02  '
               '1.968E-01  1.425E+00  2.175E-04  3.839E-04 -2.323E-04\n',
               '-\n',
               '-\n',
               '-\n',
               '-1\n',
               '-  VOLUMETRIC BUDGET FOR UNSATURATED ZONE BENEATH STREAMS AT '
               'END OF TIME STEP    30 STRESS PERIOD  35\n',
               '-  '
               '------------------------------------------------------------------------------------------------\n',
               '-\n',
               '-    CUMULATIVE VOLUMES             L**3    RATES FOR THIS '
               'TIME STEP         L**3/T\n',
               '-    ------------------                     '
               '------------------------\n',
               '-\n',
               '-\n',
               '-          STREAM LOSS =     30219084.0000            STREAM '
               'LOSS =        1.6663E-02\n',
               '-    CHANGE IN STORAGE =       249701.7500      CHANGE IN '
               'STORAGE =       -4.4717E-03\n',
               '-       RECHARGE TO GW =     29973590.0000         RECHARGE TO '
               'GW =        2.1135E-02\n',
               '-\n',
               '-             TOTAL IN =     30219084.0000               TOTAL '
               'IN =        2.1135E-02\n',
               '-\n',
               '-            TOTAL OUT =     30223292.0000              TOTAL '
               'OUT =        2.1135E-02\n',
               '-\n',
               '-             IN - OUT =        -4208.0000               IN - '
               'OUT =        1.3597E-07\n',
               '-\n',
               '-  PERCENT DISCREPANCY =           -0.00      PERCENT '
               'DISCREPANCY =             0.00\n',
               '-\n',
               '-\n',
               '-\n',
               '-1\n',
               '-              HEAD IN LAYER   1 AT END OF TIME STEP  30 IN '
               'STRESS PERIOD   35\n',
               '-  '
               '---------------------------------------------------------------------------\n',
               '-\n',
               '-          1      2      3      4      5      6      7      '
               '8      9     10\n',
               '-         11     12     13     14     15     16     17     '
               '18     19     20\n',
               '-         21     22     23     24     25     26     27     '
               '28     29     30\n',
               '-         31     32     33     34     35     36     37     '
               '38     39     40\n',
               '-         41     42     43     44     45     46     47     '
               '48     49     50\n',
               '-         51     52     53     54     55     56     57     '
               '58     59     60\n',
               '-         61     62     63     64     65     66     67     '
               '68     69     70\n',
               '-         71     72     73     74     75     76     77     '
               '78     79     80\n',
               '-         81     82     83     84     85     86     87     '
               '88     89     90\n',
               '-         91     92     93     94     95     96     97     '
               '98     99    100\n',
               '- '
               '.........................................................................\n',
               '-   1   115.2  115.2  115.2  115.2  115.2  115.2  115.1  '
               '115.1  115.1  115.0\n',
               '-       115.0  114.9  114.9  114.8  114.8  114.7  114.6  '
               '114.5  114.5  114.4\n',
               '-       114.3  114.2  114.1  114.0  113.9  113.7  113.6  '
               '113.5  113.3  113.2\n',
               '-       113.0  112.9  112.7  112.6  112.4  112.2  112.0  '
               '111.8  111.6  111.4\n',
               '-       111.1  110.9  110.7  110.4  110.2  109.9  109.6  '
               '109.3  109.0  108.7\n',
               '-       108.4  108.1  107.7  107.4  107.0  106.7  106.3  '
               '105.9  105.5  105.0\n',
               '-       104.6  104.2  103.7  103.2  102.7  102.2  101.7  '
               '101.2  100.6  100.1\n',
               '-        99.5   98.9   98.3   97.7   97.1   96.4   95.7   '
               '95.0   94.3   93.6\n',
               '-        92.9   92.1   91.3   90.5   89.7   88.9   88.0   '
               '87.1   86.2   85.3\n',
               '-        84.4   83.4   82.4   81.4   80.4   79.4   78.3   '
               '77.2   76.1   75.0\n',
               '-   2   115.2  115.2  115.2  115.2  115.2  115.2  115.1  '
               '115.1  115.1  115.0\n',
               '-       115.0  114.9  114.9  114.8  114.8  114.7  114.6  '
               '114.5  114.5  114.4\n',
               '-       114.3  114.2  114.1  114.0  113.9  113.7  113.6  '
               '113.5  113.3  113.2\n',
               '-       113.0  112.9  112.7  112.6  112.4  112.2  112.0  '
               '111.8  111.6  111.4\n',
               '-       111.1  110.9  110.7  110.4  110.2  109.9  109.6  '
               '109.3  109.0  108.7\n',
               '-       108.4  108.1  107.7  107.4  107.0  106.7  106.3  '
               '105.9  105.5  105.0\n',
               '-       104.6  104.2  103.7  103.2  102.7  102.2  101.7  '
               '101.2  100.6  100.1\n',
               '-        99.5   98.9   98.3   97.7   97.1   96.4   95.7   '
               '95.0   94.3   93.6\n',
               '-        92.9   92.1   91.3   90.5   89.7   88.9   88.0   '
               '87.1   86.2   85.3\n',
               '-        84.4   83.4   82.4   81.4   80.4   79.4   78.3   '
               '77.2   76.1   75.0\n',
               '-   3   115.2  115.2  115.2  115.2  115.2  115.2  115.1  '
               '115.1  115.1  115.0\n',
               '-       115.0  114.9  114.9  114.8  114.8  114.7  114.6  '
               '114.5  114.5  114.4\n',
               '-       114.3  114.2  114.1  114.0  113.9  113.7  113.6  '
               '113.5  113.3  113.2\n',
               '-       113.0  112.9  112.7  112.6  112.4  112.2  112.0  '
               '111.8  111.6  111.4\n',
               '-       111.1  110.9  110.7  110.4  110.2  109.9  109.6  '
               '109.3  109.0  108.7\n',
               '-       108.4  108.1  107.7  107.4  107.0  106.7  106.3  '
               '105.9  105.5  105.0\n',
               '-       104.6  104.2  103.7  103.2  102.7  102.2  101.7  '
               '101.2  100.6  100.1\n',
               '-        99.5   98.9   98.3   97.7   97.1   96.4   95.7   '
               '95.0   94.3   93.6\n',
               '-        92.9   92.1   91.3   90.5   89.7   88.9   88.0   '
               '87.1   86.2   85.3\n',
               '-        84.4   83.4   82.4   81.4   80.4   79.4   78.3   '
               '77.2   76.1   75.0\n',
               '-   4   115.2  115.2  115.2  115.2  115.2  115.2  115.1  '
               '115.1  115.1  115.0\n',
               '-       115.0  114.9  114.9  114.8  114.8  114.7  114.6  '
               '114.5  114.5  114.4\n',
               '-       114.3  114.2  114.1  114.0  113.9  113.7  113.6  '
               '113.5  113.3  113.2\n',
               '-       113.0  112.9  112.7  112.6  112.4  112.2  112.0  '
               '111.8  111.6  111.4\n',
               '-       111.1  110.9  110.7  110.4  110.2  109.9  109.6  '
               '109.3  109.0  108.7\n',
               '-       108.4  108.1  107.7  107.4  107.0  106.7  106.3  '
               '105.9  105.5  105.0\n',
               '-       104.6  104.2  103.7  103.2  102.7  102.2  101.7  '
               '101.2  100.6  100.1\n',
               '-        99.5   98.9   98.3   97.7   97.1   96.4   95.7   '
               '95.0   94.3   93.6\n',
               '-        92.9   92.1   91.3   90.5   89.7   88.9   88.0   '
               '87.1   86.2   85.3\n',
               '-        84.4   83.4   82.4   81.4   80.4   79.4   78.3   '
               '77.2   76.1   75.0\n',
               '-   5   115.2  115.2  115.2  115.2  115.2  115.2  115.1  '
               '115.1  115.1  115.0\n',
               '-       115.0  114.9  114.9  114.8  114.8  114.7  114.6  '
               '114.5  114.5  114.4\n',
               '-       114.3  114.2  114.1  114.0  113.9  113.7  113.6  '
               '113.5  113.3  113.2\n',
               '-       113.0  112.9  112.7  112.6  112.4  112.2  112.0  '
               '111.8  111.6  111.4\n',
               '-       111.1  110.9  110.7  110.4  110.2  109.9  109.6  '
               '109.3  109.0  108.7\n',
               '-       108.4  108.1  107.7  107.4  107.0  106.7  106.3  '
               '105.9  105.5  105.0\n',
               '-       104.6  104.2  103.7  103.2  102.7  102.2  101.7  '
               '101.2  100.6  100.1\n',
               '-        99.5   98.9   98.3   97.7   97.1   96.4   95.7   '
               '95.0   94.3   93.6\n',
               '-        92.9   92.1   91.3   90.5   89.7   88.9   88.0   '
               '87.1   86.2   85.3\n',
               '-        84.4   83.4   82.4   81.4   80.4   79.4   78.3   '
               '77.2   76.1   75.0\n',
               '-   6   115.2  115.2  115.2  115.2  115.2  115.2  115.1  '
               '115.1  115.1  115.0\n',
               '-       115.0  114.9  114.9  114.8  114.8  114.7  114.6  '
               '114.5  114.5  114.4\n',
               '-       114.3  114.2  114.1  114.0  113.9  113.7  113.6  '
               '113.5  113.3  113.2\n',
               '-       113.0  112.9  112.7  112.6  112.4  112.2  112.0  '
               '111.8  111.6  111.4\n',
               '-       111.1  110.9  110.7  110.4  110.2  109.9  109.6  '
               '109.3  109.0  108.7\n',
               '-       108.4  108.1  107.7  107.4  107.0  106.7  106.3  '
               '105.9  105.5  105.0\n',
               '-       104.6  104.2  103.7  103.2  102.7  102.2  101.7  '
               '101.2  100.6  100.1\n',
               '-        99.5   98.9   98.3   97.7   97.1   96.4   95.7   '
               '95.0   94.3   93.6\n',
               '-        92.9   92.1   91.3   90.5   89.7   88.9   88.0   '
               '87.1   86.2   85.3\n',
               '-        84.4   83.4   82.4   81.4   80.4   79.4   78.3   '
               '77.2   76.1   75.0\n',
               '-   7   115.2  115.2  115.2  115.2  115.2  115.2  115.1  '
               '115.1  115.1  115.0\n',
               '-       115.0  114.9  114.9  114.8  114.8  114.7  114.6  '
               '114.5  114.5  114.4\n',
               '-       114.3  114.2  114.1  114.0  113.9  113.7  113.6  '
               '113.5  113.3  113.2\n',
               '-       113.0  112.9  112.7  112.6  112.4  112.2  112.0  '
               '111.8  111.6  111.4\n',
               '-       111.1  110.9  110.7  110.4  110.2  109.9  109.6  '
               '109.3  109.0  108.7\n',
               '-       108.4  108.1  107.7  107.4  107.0  106.7  106.3  '
               '105.9  105.5  105.0\n',
               '-       104.6  104.2  103.7  103.2  102.7  102.2  101.7  '
               '101.2  100.6  100.1\n',
               '-        99.5   98.9   98.3   97.7   97.1   96.4   95.7   '
               '95.0   94.3   93.6\n',
               '-        92.9   92.1   91.3   90.5   89.7   88.9   88.0   '
               '87.1   86.2   85.3\n',
               '-        84.4   83.4   82.4   81.4   80.4   79.4   78.3   '
               '77.2   76.1   75.0\n',
               '-1\n',
               '-  VOLUMETRIC BUDGET FOR ENTIRE MODEL AT END OF TIME STEP   '
               '30, STRESS PERIOD  35\n',
               '-  '
               '------------------------------------------------------------------------------\n',
               '-\n',
               '-     CUMULATIVE VOLUMES      L**3       RATES FOR THIS TIME '
               'STEP      L**3/T\n',
               '-     ------------------                 '
               '------------------------\n',
               '-\n',
               '-           IN:                                      IN:\n',
               '-           ---                                      ---\n',
               '-             STORAGE =    14903751.0000               STORAGE '
               '=           0.1826\n',
               '-       CONSTANT HEAD =           0.0000         CONSTANT HEAD '
               '=           0.0000\n',
               '-     HEAD DEP BOUNDS =           0.0000       HEAD DEP BOUNDS '
               '=           0.0000\n',
               '-      STREAM LEAKAGE =    29973494.0000        STREAM LEAKAGE '
               '=       2.1135E-02\n',
               '-\n',
               '-            TOTAL IN =    44877244.0000              TOTAL IN '
               '=           0.2038\n',
               '-\n',
               '-          OUT:                                     OUT:\n',
               '-          ----                                     ----\n',
               '-             STORAGE =    15953330.0000               STORAGE '
               '=           0.0000\n',
               '-       CONSTANT HEAD =           0.0000         CONSTANT HEAD '
               '=           0.0000\n',
               '-     HEAD DEP BOUNDS =    28923770.0000       HEAD DEP BOUNDS '
               '=           0.2036\n',
               '-      STREAM LEAKAGE =           0.0000        STREAM LEAKAGE '
               '=           0.0000\n',
               '-\n',
               '-           TOTAL OUT =    44877100.0000             TOTAL OUT '
               '=           0.2036\n',
               '-\n',
               '-            IN - OUT =         144.0000              IN - OUT '
               '=       1.5326E-04\n',
               '-\n',
               '- PERCENT DISCREPANCY =           0.00     PERCENT DISCREPANCY '
               '=           0.08\n',
               '-\n',
               '-\n',
               '-\n',
               '-\n',
               '-\n',
               '-\n',
               '-         TIME SUMMARY AT END OF TIME STEP   30 IN STRESS '
               'PERIOD   35\n',
               '-                    SECONDS     MINUTES      HOURS       '
               'DAYS        YEARS\n',
               '-                    '
               '-----------------------------------------------------------\n',
               '-   TIME STEP LENGTH 2.49961E+05  4166.0      69.434      '
               '2.8931     7.92080E-03\n',
               '- STRESS PERIOD TIME 2.59200E+06  43200.      720.00      '
               '30.000     8.21355E-02\n',
               '-         TOTAL TIME 9.07200E+07 1.51200E+06  25200.      '
               '1050.0      2.8747    \n',
               '-1\n',
               '-1\n',
               '-                            STRESS PERIOD NO.   36, LENGTH '
               '=   2592000.    \n',
               '-                            '
               '-----------------------------------------------\n',
               '-\n',
               '-                              NUMBER OF TIME STEPS =    30\n',
               '-\n',
               '-                               MULTIPLIER FOR DELT =     '
               '1.100\n',
               '-\n',
               '-                            INITIAL TIME STEP SIZE =   '
               '15757.40    \n',
               '-\n',
               '- REUSING NON-PARAMETER GHB CELLS FROM LAST STRESS PERIOD\n',
               '-\n',
               '-      7 GHB CELLS\n',
               '- \n',
               '- SOLVING FOR HEAD \n',
               '-\n',
               '- NO OUTPUT CONTROL FOR STRESS PERIOD   36   TIME STEP    1\n',
               '- \n',
               '- SOLVING FOR HEAD \n',
               '-\n',
               '- NO OUTPUT CONTROL FOR STRESS PERIOD   36   TIME STEP    2\n',
               '- \n',
               '- SOLVING FOR HEAD \n',
               '-\n',
               '- NO OUTPUT CONTROL FOR STRESS PERIOD   36   TIME STEP    3\n',
               '- \n',
               '- SOLVING FOR HEAD \n',
               '-\n',
               '- NO OUTPUT CONTROL FOR STRESS PERIOD   36   TIME STEP    4\n',
               '- \n',
               '- SOLVING FOR HEAD \n',
               '-\n',
               '- NO OUTPUT CONTROL FOR STRESS PERIOD   36   TIME STEP    5\n',
               '- \n',
               '- SOLVING FOR HEAD \n',
               '-\n',
               '- NO OUTPUT CONTROL FOR STRESS PERIOD   36   TIME STEP    6\n',
               '- \n',
               '- SOLVING FOR HEAD \n',
               '-\n',
               '- NO OUTPUT CONTROL FOR STRESS PERIOD   36   TIME STEP    7\n',
               '- \n',
               '- SOLVING FOR HEAD \n',
               '-\n',
               '- NO OUTPUT CONTROL FOR STRESS PERIOD   36   TIME STEP    8\n',
               '- \n',
               '- SOLVING FOR HEAD \n',
               '-\n',
               '- NO OUTPUT CONTROL FOR STRESS PERIOD   36   TIME STEP    9\n',
               '- \n',
               '- SOLVING FOR HEAD \n',
               '-\n',
               '- NO OUTPUT CONTROL FOR STRESS PERIOD   36   TIME STEP   10\n',
               '- \n',
               '- SOLVING FOR HEAD \n',
               '-\n',
               '- NO OUTPUT CONTROL FOR STRESS PERIOD   36   TIME STEP   11\n',
               '- \n',
               '- SOLVING FOR HEAD \n',
               '-\n',
               '- NO OUTPUT CONTROL FOR STRESS PERIOD   36   TIME STEP   12\n',
               '- \n',
               '- SOLVING FOR HEAD \n',
               '-\n',
               '- NO OUTPUT CONTROL FOR STRESS PERIOD   36   TIME STEP   13\n',
               '- \n',
               '- SOLVING FOR HEAD \n',
               '-\n',
               '- NO OUTPUT CONTROL FOR STRESS PERIOD   36   TIME STEP   14\n',
               '- \n',
               '- SOLVING FOR HEAD \n',
               '-\n',
               '- NO OUTPUT CONTROL FOR STRESS PERIOD   36   TIME STEP   15\n',
               '- \n',
               '- SOLVING FOR HEAD \n',
               '-\n',
               '- NO OUTPUT CONTROL FOR STRESS PERIOD   36   TIME STEP   16\n',
               '- \n',
               '- SOLVING FOR HEAD \n',
               '-\n',
               '- NO OUTPUT CONTROL FOR STRESS PERIOD   36   TIME STEP   17\n',
               '- \n',
               '- SOLVING FOR HEAD \n',
               '-\n',
               '- NO OUTPUT CONTROL FOR STRESS PERIOD   36   TIME STEP   18\n',
               '- \n',
               '- SOLVING FOR HEAD \n',
               '-\n',
               '- NO OUTPUT CONTROL FOR STRESS PERIOD   36   TIME STEP   19\n',
               '- \n',
               '- SOLVING FOR HEAD \n',
               '-\n',
               '- NO OUTPUT CONTROL FOR STRESS PERIOD   36   TIME STEP   20\n',
               '- \n',
               '- SOLVING FOR HEAD \n',
               '-\n',
               '- NO OUTPUT CONTROL FOR STRESS PERIOD   36   TIME STEP   21\n',
               '- \n',
               '- SOLVING FOR HEAD \n',
               '-\n',
               '- NO OUTPUT CONTROL FOR STRESS PERIOD   36   TIME STEP   22\n',
               '- \n',
               '- SOLVING FOR HEAD \n',
               '-\n',
               '- NO OUTPUT CONTROL FOR STRESS PERIOD   36   TIME STEP   23\n',
               '- \n',
               '- SOLVING FOR HEAD \n',
               '-\n',
               '- NO OUTPUT CONTROL FOR STRESS PERIOD   36   TIME STEP   24\n',
               '- \n',
               '- SOLVING FOR HEAD \n',
               '-\n',
               '- NO OUTPUT CONTROL FOR STRESS PERIOD   36   TIME STEP   25\n',
               '- \n',
               '- SOLVING FOR HEAD \n',
               '-\n',
               '- NO OUTPUT CONTROL FOR STRESS PERIOD   36   TIME STEP   26\n',
               '- \n',
               '- SOLVING FOR HEAD \n',
               '-\n',
               '- NO OUTPUT CONTROL FOR STRESS PERIOD   36   TIME STEP   27\n',
               '- \n',
               '- SOLVING FOR HEAD \n',
               '-\n',
               '- NO OUTPUT CONTROL FOR STRESS PERIOD   36   TIME STEP   28\n',
               '- \n',
               '- SOLVING FOR HEAD \n',
               '-\n',
               '- NO OUTPUT CONTROL FOR STRESS PERIOD   36   TIME STEP   29\n',
               '- \n',
               '- SOLVING FOR HEAD \n',
               '-\n',
               '- NO OUTPUT CONTROL FOR STRESS PERIOD   36   TIME STEP   30\n',
               '-\n',
               '-\n',
               '-\n',
               '- STREAM LISTING     PERIOD     36   STEP       30\n',
               '-\n',
               '- LAYER ROW COL. STREAM  RCH.   FLOW INTO    STREAM     FLOW '
               'OUT OF   OVRLND.    DIRECT     STREAM      STREAM      '
               'STREAM     STREAM  STREAMBED   FLOW TO   CHNG. UNSAT. \n',
               '-                SEG.NO.  NO.   STRM. RCH.    LOSS       STRM. '
               'RCH.   RUNOFF     PRECIP       ET         HEAD        '
               'DEPTH      WIDTH  CONDCTNC.   WAT. TAB.\n',
               '-\n',
               '-   1    4    1     1     1    1.6004E-02  1.0284E-04   '
               '1.5901E-02  0.000E+00  0.000E+00  0.000E+00  1.39994E+02  '
               '1.444E-01  1.045E+00  1.596E-04  2.018E-04 -9.897E-05\n',
               '-   1    4    2     1     2    1.5901E-02  1.0254E-04   '
               '1.5799E-02  0.000E+00  0.000E+00  0.000E+00  1.39694E+02  '
               '1.441E-01  1.043E+00  1.592E-04  2.014E-04 -9.886E-05\n',
               '-   1    4    3     1     3    1.5799E-02  1.0224E-04   '
               '1.5697E-02  0.000E+00  0.000E+00  0.000E+00  1.39394E+02  '
               '1.437E-01  1.040E+00  1.588E-04  2.010E-04 -9.873E-05\n',
               '-   1    4    4     1     4    1.5697E-02  1.0193E-04   '
               '1.5595E-02  0.000E+00  0.000E+00  0.000E+00  1.39093E+02  '
               '1.434E-01  1.038E+00  1.584E-04  2.005E-04 -9.860E-05\n',
               '-   1    4    5     1     5    1.5595E-02  1.0163E-04   '
               '1.5493E-02  0.000E+00  0.000E+00  0.000E+00  1.38793E+02  '
               '1.430E-01  1.035E+00  1.581E-04  1.930E-04 -9.140E-05\n',
               '-   1    4    6     1     6    1.5493E-02  1.0132E-04   '
               '1.5392E-02  0.000E+00  0.000E+00  0.000E+00  1.38493E+02  '
               '1.427E-01  1.033E+00  1.577E-04  1.926E-04 -9.125E-05\n',
               '-   1    4    7     1     7    1.5392E-02  1.0102E-04   '
               '1.5291E-02  0.000E+00  0.000E+00  0.000E+00  1.38192E+02  '
               '1.423E-01  1.030E+00  1.573E-04  1.921E-04 -9.110E-05\n',
               '-   1    4    8     1     8    1.5291E-02  1.0071E-04   '
               '1.5190E-02  0.000E+00  0.000E+00  0.000E+00  1.37892E+02  '
               '1.420E-01  1.028E+00  1.569E-04  1.916E-04 -9.095E-05\n',
               '-   1    4    9     1     9    1.5190E-02  1.0041E-04   '
               '1.5090E-02  0.000E+00  0.000E+00  0.000E+00  1.37592E+02  '
               '1.416E-01  1.025E+00  1.565E-04  1.912E-04 -9.078E-05\n',
               '-   1    4   10     1    10    1.5090E-02  1.0010E-04   '
               '1.4990E-02  0.000E+00  0.000E+00  0.000E+00  1.37291E+02  '
               '1.413E-01  1.023E+00  1.561E-04  1.907E-04 -9.061E-05\n',
               '-   1    4   11     1    11    1.4990E-02  9.9798E-05   '
               '1.4890E-02  0.000E+00  0.000E+00  0.000E+00  1.36991E+02  '
               '1.409E-01  1.020E+00  1.557E-04  1.890E-04 -8.918E-05\n',
               '-   1    4   12     1    12    1.4890E-02  9.9493E-05   '
               '1.4790E-02  0.000E+00  0.000E+00  0.000E+00  1.36691E+02  '
               '1.406E-01  1.017E+00  1.553E-04  1.857E-04 -8.622E-05\n',
               '-   1    4   13     1    13    1.4790E-02  9.9188E-05   '
               '1.4691E-02  0.000E+00  0.000E+00  0.000E+00  1.36390E+02  '
               '1.402E-01  1.015E+00  1.549E-04  1.852E-04 -8.605E-05\n',
               '-   1    4   14     1    14    1.4691E-02  9.8883E-05   '
               '1.4592E-02  0.000E+00  0.000E+00  0.000E+00  1.36090E+02  '
               '1.399E-01  1.012E+00  1.545E-04  1.847E-04 -8.586E-05\n',
               '-   1    4   15     1    15    1.4592E-02  9.8577E-05   '
               '1.4494E-02  0.000E+00  0.000E+00  0.000E+00  1.35790E+02  '
               '1.395E-01  1.010E+00  1.542E-04  1.842E-04 -8.567E-05\n',
               '-   1    4   16     1    16    1.4494E-02  9.8272E-05   '
               '1.4395E-02  0.000E+00  0.000E+00  0.000E+00  1.35489E+02  '
               '1.391E-01  1.007E+00  1.538E-04  1.837E-04 -8.548E-05\n',
               '-   1    4   17     1    17    1.4395E-02  9.7967E-05   '
               '1.4297E-02  0.000E+00  0.000E+00  0.000E+00  1.35189E+02  '
               '1.388E-01  1.005E+00  1.534E-04  1.831E-04 -8.515E-05\n',
               '-   1    4   18     1    18    1.4297E-02  9.7661E-05   '
               '1.4200E-02  0.000E+00  0.000E+00  0.000E+00  1.34888E+02  '
               '1.384E-01  1.002E+00  1.530E-04  1.822E-04 -8.458E-05\n',
               '-   1    4   19     1    19    1.4200E-02  9.7356E-05   '
               '1.4102E-02  0.000E+00  0.000E+00  0.000E+00  1.34588E+02  '
               '1.381E-01  9.995E-01  1.526E-04  1.811E-04 -8.377E-05\n',
               '-   1    4   20     1    20    1.4102E-02  9.7050E-05   '
               '1.4005E-02  0.000E+00  0.000E+00  0.000E+00  1.34288E+02  '
               '1.377E-01  9.969E-01  1.522E-04  1.797E-04 -8.267E-05\n',
               '-   1    4   21     1    21    1.4005E-02  9.6745E-05   '
               '1.3909E-02  0.000E+00  0.000E+00  0.000E+00  1.33987E+02  '
               '1.374E-01  9.943E-01  1.518E-04  1.778E-04 -8.109E-05\n',
               '-   1    4   22     1    22    1.3909E-02  9.6439E-05   '
               '1.3812E-02  0.000E+00  0.000E+00  0.000E+00  1.33687E+02  '
               '1.370E-01  9.917E-01  1.514E-04  1.758E-04 -7.939E-05\n',
               '-   1    4   23     1    23    1.3812E-02  9.6133E-05   '
               '1.3716E-02  0.000E+00  0.000E+00  0.000E+00  1.33387E+02  '
               '1.367E-01  9.891E-01  1.510E-04  1.736E-04 -7.748E-05\n',
               '-   1    4   24     1    24    1.3716E-02  9.5827E-05   '
               '1.3620E-02  0.000E+00  0.000E+00  0.000E+00  1.33086E+02  '
               '1.363E-01  9.865E-01  1.506E-04  1.714E-04 -7.559E-05\n',
               '-   1    4   25     1    25    1.3620E-02  9.5521E-05   '
               '1.3525E-02  0.000E+00  0.000E+00  0.000E+00  1.32786E+02  '
               '1.359E-01  9.839E-01  1.502E-04  1.690E-04 -7.345E-05\n',
               '-   1    4   26     1    26    1.3525E-02  9.5215E-05   '
               '1.3429E-02  0.000E+00  0.000E+00  0.000E+00  1.32486E+02  '
               '1.356E-01  9.813E-01  1.498E-04  1.666E-04 -7.140E-05\n',
               '-   1    4   27     1    27    1.3429E-02  9.4909E-05   '
               '1.3335E-02  0.000E+00  0.000E+00  0.000E+00  1.32185E+02  '
               '1.352E-01  9.787E-01  1.494E-04  1.641E-04 -6.917E-05\n',
               '-   1    4   28     1    28    1.3335E-02  9.4603E-05   '
               '1.3240E-02  0.000E+00  0.000E+00  0.000E+00  1.31885E+02  '
               '1.349E-01  9.761E-01  1.490E-04  1.617E-04 -6.709E-05\n',
               '-   1    4   29     1    29    1.3240E-02  9.4296E-05   '
               '1.3146E-02  0.000E+00  0.000E+00  0.000E+00  1.31585E+02  '
               '1.345E-01  9.735E-01  1.486E-04  1.596E-04 -6.532E-05\n',
               '-   1    4   30     1    30    1.3146E-02  9.3990E-05   '
               '1.3052E-02  0.000E+00  0.000E+00  0.000E+00  1.31284E+02  '
               '1.341E-01  9.709E-01  1.482E-04  1.574E-04 -6.339E-05\n',
               '-   1    4   31     1    31    1.3052E-02  9.3683E-05   '
               '1.2958E-02  0.000E+00  0.000E+00  0.000E+00  1.30984E+02  '
               '1.338E-01  9.683E-01  1.478E-04  1.554E-04 -6.168E-05\n',
               '-   1    4   32     1    32    1.2958E-02  9.3377E-05   '
               '1.2865E-02  0.000E+00  0.000E+00  0.000E+00  1.30683E+02  '
               '1.334E-01  9.657E-01  1.474E-04  1.535E-04 -6.013E-05\n',
               '-   1    4   33     1    33    1.2865E-02  9.3070E-05   '
               '1.2772E-02  0.000E+00  0.000E+00  0.000E+00  1.30383E+02  '
               '1.331E-01  9.631E-01  1.470E-04  1.516E-04 -5.858E-05\n',
               '-   1    4   34     1    34    1.2772E-02  9.2763E-05   '
               '1.2679E-02  0.000E+00  0.000E+00  0.000E+00  1.30083E+02  '
               '1.327E-01  9.604E-01  1.466E-04  1.498E-04 -5.706E-05\n',
               '-   1    4   35     1    35    1.2679E-02  9.2457E-05   '
               '1.2586E-02  0.000E+00  0.000E+00  0.000E+00  1.29782E+02  '
               '1.323E-01  9.578E-01  1.462E-04  1.482E-04 -5.570E-05\n',
               '-   1    4   36     1    36    1.2586E-02  9.2150E-05   '
               '1.2494E-02  0.000E+00  0.000E+00  0.000E+00  1.29482E+02  '
               '1.320E-01  9.552E-01  1.458E-04  1.466E-04 -5.442E-05\n',
               '-   1    4   37     1    37    1.2494E-02  9.1843E-05   '
               '1.2402E-02  0.000E+00  0.000E+00  0.000E+00  1.29182E+02  '
               '1.316E-01  9.525E-01  1.454E-04  1.452E-04 -5.337E-05\n',
               '-   1    4   38     1    38    1.2402E-02  9.1535E-05   '
               '1.2311E-02  0.000E+00  0.000E+00  0.000E+00  1.28881E+02  '
               '1.312E-01  9.499E-01  1.450E-04  1.440E-04 -5.243E-05\n',
               '-   1    4   39     1    39    1.2311E-02  9.1228E-05   '
               '1.2220E-02  0.000E+00  0.000E+00  0.000E+00  1.28581E+02  '
               '1.309E-01  9.473E-01  1.446E-04  1.428E-04 -5.157E-05\n',
               '-   1    4   40     1    40    1.2220E-02  9.0921E-05   '
               '1.2129E-02  0.000E+00  0.000E+00  0.000E+00  1.28281E+02  '
               '1.305E-01  9.446E-01  1.442E-04  1.418E-04 -5.086E-05\n',
               '-   1    4   41     1    41    1.2129E-02  9.0613E-05   '
               '1.2038E-02  0.000E+00  0.000E+00  0.000E+00  1.27980E+02  '
               '1.301E-01  9.420E-01  1.438E-04  1.410E-04 -5.035E-05\n',
               '-   1    4   42     1    42    1.2038E-02  9.0306E-05   '
               '1.1948E-02  0.000E+00  0.000E+00  0.000E+00  1.27680E+02  '
               '1.298E-01  9.393E-01  1.434E-04  1.404E-04 -5.006E-05\n',
               '-   1    4   43     1    43    1.1948E-02  8.9998E-05   '
               '1.1858E-02  0.000E+00  0.000E+00  0.000E+00  1.27379E+02  '
               '1.294E-01  9.367E-01  1.430E-04  1.399E-04 -4.990E-05\n',
               '-   1    4   44     1    44    1.1858E-02  8.9690E-05   '
               '1.1768E-02  0.000E+00  0.000E+00  0.000E+00  1.27079E+02  '
               '1.290E-01  9.340E-01  1.426E-04  1.393E-04 -4.960E-05\n',
               '-   1    4   45     1    45    1.1768E-02  8.9383E-05   '
               '1.1679E-02  0.000E+00  0.000E+00  0.000E+00  1.26779E+02  '
               '1.287E-01  9.313E-01  1.422E-04  1.386E-04 -4.926E-05\n',
               '-   1    4   46     1    46    1.1679E-02  8.9075E-05   '
               '1.1590E-02  0.000E+00  0.000E+00  0.000E+00  1.26478E+02  '
               '1.283E-01  9.287E-01  1.418E-04  1.381E-04 -4.902E-05\n',
               '-   1    4   47     1    47    1.1590E-02  8.8767E-05   '
               '1.1501E-02  0.000E+00  0.000E+00  0.000E+00  1.26178E+02  '
               '1.279E-01  9.260E-01  1.414E-04  1.377E-04 -4.889E-05\n',
               '-   1    4   48     1    48    1.1501E-02  8.8458E-05   '
               '1.1412E-02  0.000E+00  0.000E+00  0.000E+00  1.25878E+02  '
               '1.276E-01  9.233E-01  1.410E-04  1.373E-04 -4.887E-05\n',
               '-   1    4   49     1    49    1.1412E-02  8.8150E-05   '
               '1.1324E-02  0.000E+00  0.000E+00  0.000E+00  1.25577E+02  '
               '1.272E-01  9.207E-01  1.406E-04  1.371E-04 -4.897E-05\n',
               '-   1    4   50     1    50    1.1324E-02  8.7842E-05   '
               '1.1236E-02  0.000E+00  0.000E+00  0.000E+00  1.25277E+02  '
               '1.268E-01  9.180E-01  1.401E-04  1.370E-04 -4.919E-05\n',
               '-   1    4   51     1    51    1.1236E-02  8.7533E-05   '
               '1.1149E-02  0.000E+00  0.000E+00  0.000E+00  1.24976E+02  '
               '1.265E-01  9.153E-01  1.397E-04  1.371E-04 -4.953E-05\n',
               '-   1    4   52     1    52    1.1149E-02  8.7225E-05   '
               '1.1062E-02  0.000E+00  0.000E+00  0.000E+00  1.24676E+02  '
               '1.261E-01  9.126E-01  1.393E-04  1.373E-04 -5.012E-05\n',
               '-   1    4   53     1    53    1.1062E-02  8.6916E-05   '
               '1.0975E-02  0.000E+00  0.000E+00  0.000E+00  1.24376E+02  '
               '1.257E-01  9.099E-01  1.389E-04  1.377E-04 -5.082E-05\n',
               '-   1    4   54     1    54    1.0975E-02  8.6607E-05   '
               '1.0888E-02  0.000E+00  0.000E+00  0.000E+00  1.24075E+02  '
               '1.253E-01  9.072E-01  1.385E-04  1.381E-04 -5.146E-05\n',
               '-   1    4   55     1    55    1.0888E-02  8.6298E-05   '
               '1.0802E-02  0.000E+00  0.000E+00  0.000E+00  1.23775E+02  '
               '1.250E-01  9.045E-01  1.381E-04  1.385E-04 -5.223E-05\n',
               '-   1    4   56     1    56    1.0802E-02  8.5989E-05   '
               '1.0716E-02  0.000E+00  0.000E+00  0.000E+00  1.23475E+02  '
               '1.246E-01  9.018E-01  1.377E-04  1.393E-04 -5.333E-05\n',
               '-   1    4   57     1    57    1.0716E-02  8.5680E-05   '
               '1.0630E-02  0.000E+00  0.000E+00  0.000E+00  1.23174E+02  '
               '1.242E-01  8.991E-01  1.373E-04  1.403E-04 -5.458E-05\n',
               '-   1    4   58     1    58    1.0630E-02  8.5370E-05   '
               '1.0545E-02  0.000E+00  0.000E+00  0.000E+00  1.22874E+02  '
               '1.238E-01  8.964E-01  1.369E-04  1.421E-04 -5.668E-05\n',
               '-   1    4   59     1    59    1.0545E-02  8.5061E-05   '
               '1.0460E-02  0.000E+00  0.000E+00  0.000E+00  1.22573E+02  '
               '1.235E-01  8.937E-01  1.364E-04  1.438E-04 -5.872E-05\n',
               '-   1    4   60     1    60    1.0460E-02  8.4751E-05   '
               '1.0375E-02  0.000E+00  0.000E+00  0.000E+00  1.22273E+02  '
               '1.231E-01  8.910E-01  1.360E-04  1.452E-04 -6.045E-05\n',
               '-   1    4   61     1    61    1.0375E-02  8.4441E-05   '
               '1.0290E-02  0.000E+00  0.000E+00  0.000E+00  1.21973E+02  '
               '1.227E-01  8.883E-01  1.356E-04  1.466E-04 -6.214E-05\n',
               '-   1    4   62     1    62    1.0290E-02  8.4131E-05   '
               '1.0206E-02  0.000E+00  0.000E+00  0.000E+00  1.21672E+02  '
               '1.223E-01  8.856E-01  1.352E-04  1.482E-04 -6.409E-05\n',
               '-   1    4   63     1    63    1.0206E-02  8.3821E-05   '
               '1.0123E-02  0.000E+00  0.000E+00  0.000E+00  1.21372E+02  '
               '1.220E-01  8.828E-01  1.348E-04  1.500E-04 -6.617E-05\n',
               '-   1    4   64     1    64    1.0123E-02  8.3511E-05   '
               '1.0039E-02  0.000E+00  0.000E+00  0.000E+00  1.21072E+02  '
               '1.216E-01  8.801E-01  1.344E-04  1.518E-04 -6.828E-05\n',
               '-   1    4   65     1    65    1.0039E-02  8.3201E-05   '
               '9.9558E-03  0.000E+00  0.000E+00  0.000E+00  1.20771E+02  '
               '1.212E-01  8.774E-01  1.339E-04  1.537E-04 -7.046E-05\n',
               '-   1    4   66     1    66    9.9558E-03  8.2891E-05   '
               '9.8729E-03  0.000E+00  0.000E+00  0.000E+00  1.20471E+02  '
               '1.208E-01  8.746E-01  1.335E-04  1.561E-04 -7.326E-05\n',
               '-   1    4   67     1    67    9.8729E-03  8.2580E-05   '
               '9.7903E-03  0.000E+00  0.000E+00  0.000E+00  1.20170E+02  '
               '1.205E-01  8.719E-01  1.331E-04  1.573E-04 -7.472E-05\n',
               '-   1    4   68     1    68    9.7903E-03  8.2269E-05   '
               '9.7081E-03  0.000E+00  0.000E+00  0.000E+00  1.19870E+02  '
               '1.201E-01  8.691E-01  1.327E-04  1.581E-04 -7.582E-05\n',
               '-   1    4   69     1    69    9.7081E-03  8.1958E-05   '
               '9.6261E-03  0.000E+00  0.000E+00  0.000E+00  1.19570E+02  '
               '1.197E-01  8.664E-01  1.323E-04  1.585E-04 -7.654E-05\n',
               '-   1    4   70     1    70    9.6261E-03  8.1647E-05   '
               '9.5445E-03  0.000E+00  0.000E+00  0.000E+00  1.19269E+02  '
               '1.193E-01  8.636E-01  1.318E-04  1.588E-04 -7.712E-05\n',
               '-   1    4   71     1    71    9.5445E-03  8.1336E-05   '
               '9.4631E-03  0.000E+00  0.000E+00  0.000E+00  1.18969E+02  '
               '1.189E-01  8.609E-01  1.314E-04  1.593E-04 -7.797E-05\n',
               '-   1    4   72     1    72    9.4631E-03  8.1025E-05   '
               '9.3821E-03  0.000E+00  0.000E+00  0.000E+00  1.18669E+02  '
               '1.186E-01  8.581E-01  1.310E-04  1.612E-04 -8.017E-05\n',
               '-   1    4   73     1    73    9.3821E-03  8.0713E-05   '
               '9.3014E-03  0.000E+00  0.000E+00  0.000E+00  1.18368E+02  '
               '1.182E-01  8.553E-01  1.306E-04  1.608E-04 -8.005E-05\n',
               '-   1    4   74     1    74    9.3014E-03  8.0402E-05   '
               '9.2210E-03  0.000E+00  0.000E+00  0.000E+00  1.18068E+02  '
               '1.178E-01  8.525E-01  1.302E-04  1.611E-04 -8.074E-05\n',
               '-   1    4   75     1    75    9.2210E-03  8.0090E-05   '
               '9.1409E-03  0.000E+00  0.000E+00  0.000E+00  1.17767E+02  '
               '1.174E-01  8.498E-01  1.297E-04  1.569E-04 -7.684E-05\n',
               '-   1    4   76     1    76    9.1409E-03  7.9778E-05   '
               '9.0611E-03  0.000E+00  0.000E+00  0.000E+00  1.17467E+02  '
               '1.170E-01  8.470E-01  1.293E-04  1.567E-04 -7.691E-05\n',
               '-   1    4   77     1    77    9.0611E-03  7.9466E-05   '
               '8.9817E-03  0.000E+00  0.000E+00  0.000E+00  1.17167E+02  '
               '1.166E-01  8.442E-01  1.289E-04  1.565E-04 -7.701E-05\n',
               '-   1    4   78     1    78    8.9817E-03  7.9154E-05   '
               '8.9025E-03  0.000E+00  0.000E+00  0.000E+00  1.16866E+02  '
               '1.162E-01  8.414E-01  1.285E-04  1.563E-04 -7.713E-05\n',
               '-   1    4   79     1    79    8.9025E-03  7.8841E-05   '
               '8.8237E-03  0.000E+00  0.000E+00  0.000E+00  1.16566E+02  '
               '1.159E-01  8.386E-01  1.280E-04  1.561E-04 -7.728E-05\n',
               '-   1    4   80     1    80    8.8237E-03  7.8528E-05   '
               '8.7451E-03  0.000E+00  0.000E+00  0.000E+00  1.16265E+02  '
               '1.155E-01  8.358E-01  1.276E-04  1.560E-04 -7.744E-05\n',
               '-   1    4   81     1    81    8.7451E-03  7.8216E-05   '
               '8.6669E-03  0.000E+00  0.000E+00  0.000E+00  1.15965E+02  '
               '1.151E-01  8.330E-01  1.272E-04  1.558E-04 -7.764E-05\n',
               '-   1    4   82     1    82    8.6669E-03  7.7903E-05   '
               '8.5890E-03  0.000E+00  0.000E+00  0.000E+00  1.15665E+02  '
               '1.147E-01  8.302E-01  1.267E-04  1.586E-04 -8.073E-05\n',
               '-   1    4   83     1    83    8.5890E-03  7.7590E-05   '
               '8.5114E-03  0.000E+00  0.000E+00  0.000E+00  1.15364E+02  '
               '1.143E-01  8.274E-01  1.263E-04  1.614E-04 -8.381E-05\n',
               '-   1    4   84     1    84    8.5114E-03  7.7276E-05   '
               '8.4342E-03  0.000E+00  0.000E+00  0.000E+00  1.15064E+02  '
               '1.139E-01  8.246E-01  1.259E-04  1.614E-04 -8.416E-05\n',
               '-   1    4   85     1    85    8.4342E-03  7.6963E-05   '
               '8.3572E-03  0.000E+00  0.000E+00  0.000E+00  1.14764E+02  '
               '1.135E-01  8.217E-01  1.255E-04  1.615E-04 -8.456E-05\n',
               '-   1    4   86     1    86    8.3572E-03  7.6649E-05   '
               '8.2805E-03  0.000E+00  0.000E+00  0.000E+00  1.14463E+02  '
               '1.131E-01  8.189E-01  1.250E-04  1.616E-04 -8.500E-05\n',
               '-   1    4   87     1    87    8.2805E-03  7.6335E-05   '
               '8.2042E-03  0.000E+00  0.000E+00  0.000E+00  1.14163E+02  '
               '1.127E-01  8.161E-01  1.246E-04  1.629E-04 -8.659E-05\n',
               '-   1    4   88     1    88    8.2042E-03  7.6021E-05   '
               '8.1282E-03  0.000E+00  0.000E+00  0.000E+00  1.13862E+02  '
               '1.124E-01  8.133E-01  1.242E-04  1.670E-04 -9.100E-05\n',
               '-   1    4   89     1    89    8.1282E-03  7.5707E-05   '
               '8.0525E-03  0.000E+00  0.000E+00  0.000E+00  1.13562E+02  '
               '1.120E-01  8.104E-01  1.237E-04  1.673E-04 -9.160E-05\n',
               '-   1    4   90     1    90    8.0525E-03  7.5393E-05   '
               '7.9771E-03  0.000E+00  0.000E+00  0.000E+00  1.13262E+02  '
               '1.116E-01  8.076E-01  1.233E-04  1.676E-04 -9.227E-05\n',
               '-   1    4   91     1    91    7.9771E-03  7.5078E-05   '
               '7.9020E-03  0.000E+00  0.000E+00  0.000E+00  1.12961E+02  '
               '1.112E-01  8.047E-01  1.229E-04  1.681E-04 -9.299E-05\n',
               '-   1    4   92     1    92    7.9020E-03  7.4763E-05   '
               '7.8273E-03  0.000E+00  0.000E+00  0.000E+00  1.12661E+02  '
               '1.108E-01  8.019E-01  1.224E-04  1.685E-04 -9.378E-05\n',
               '-   1    4   93     1    93    7.8273E-03  7.4448E-05   '
               '7.7528E-03  0.000E+00  0.000E+00  0.000E+00  1.12360E+02  '
               '1.104E-01  7.990E-01  1.220E-04  1.691E-04 -9.464E-05\n',
               '-   1    4   94     1    94    7.7528E-03  7.4133E-05   '
               '7.6787E-03  0.000E+00  0.000E+00  0.000E+00  1.12060E+02  '
               '1.100E-01  7.961E-01  1.215E-04  1.697E-04 -9.558E-05\n',
               '-   1    4   95     1    95    7.6787E-03  7.3817E-05   '
               '7.6049E-03  0.000E+00  0.000E+00  0.000E+00  1.11760E+02  '
               '1.096E-01  7.933E-01  1.211E-04  1.704E-04 -9.659E-05\n',
               '-   1    4   96     1    96    7.6049E-03  7.3502E-05   '
               '7.5314E-03  0.000E+00  0.000E+00  0.000E+00  1.11459E+02  '
               '1.092E-01  7.904E-01  1.207E-04  1.712E-04 -9.767E-05\n',
               '-   1    4   97     1    97    7.5314E-03  7.3186E-05   '
               '7.4582E-03  0.000E+00  0.000E+00  0.000E+00  1.11159E+02  '
               '1.088E-01  7.875E-01  1.202E-04  1.720E-04 -9.884E-05\n',
               '-   1    4   98     1    98    7.4582E-03  7.2870E-05   '
               '7.3853E-03  0.000E+00  0.000E+00  0.000E+00  1.10858E+02  '
               '1.084E-01  7.846E-01  1.198E-04  1.729E-04 -1.001E-04\n',
               '-   1    4   99     1    99    7.3853E-03  7.2554E-05   '
               '7.3127E-03  0.000E+00  0.000E+00  0.000E+00  1.10558E+02  '
               '1.080E-01  7.817E-01  1.193E-04  1.740E-04 -1.014E-04\n',
               '-   1    4  100     1   100    7.3127E-03  7.2237E-05   '
               '7.2405E-03  0.000E+00  0.000E+00  0.000E+00  1.10258E+02  '
               '1.076E-01  7.788E-01  1.189E-04  1.750E-04 -1.028E-04\n',
               '-\n',
               '-\n',
               '-\n',
               '-1\n',
               '-  VOLUMETRIC BUDGET FOR UNSATURATED ZONE BENEATH STREAMS AT '
               'END OF TIME STEP    30 STRESS PERIOD  36\n',
               '-  '
               '------------------------------------------------------------------------------------------------\n',
               '-\n',
               '-    CUMULATIVE VOLUMES             L**3    RATES FOR THIS '
               'TIME STEP         L**3/T\n',
               '-    ------------------                     '
               '------------------------\n',
               '-\n',
               '-\n',
               '-          STREAM LOSS =     30241878.0000            STREAM '
               'LOSS =        8.7638E-03\n',
               '-    CHANGE IN STORAGE =       226322.7344      CHANGE IN '
               'STORAGE =       -7.4289E-03\n',
               '-       RECHARGE TO GW =     30019692.0000         RECHARGE TO '
               'GW =        1.6192E-02\n',
               '-\n',
               '-             TOTAL IN =     30241878.0000               TOTAL '
               'IN =        1.6193E-02\n',
               '-\n',
               '-            TOTAL OUT =     30246014.0000              TOTAL '
               'OUT =        1.6192E-02\n',
               '-\n',
               '-             IN - OUT =        -4136.0000               IN - '
               'OUT =        5.4017E-07\n',
               '-\n',
               '-  PERCENT DISCREPANCY =           -0.00      PERCENT '
               'DISCREPANCY =             0.00\n',
               '-\n',
               '-\n',
               '-\n',
               '-1\n',
               '-  VOLUMETRIC BUDGET FOR ENTIRE MODEL AT END OF TIME STEP   '
               '30, STRESS PERIOD  36\n',
               '-  '
               '------------------------------------------------------------------------------\n',
               '-\n',
               '-     CUMULATIVE VOLUMES      L**3       RATES FOR THIS TIME '
               'STEP      L**3/T\n',
               '-     ------------------                 '
               '------------------------\n',
               '-\n',
               '-           IN:                                      IN:\n',
               '-           ---                                      ---\n',
               '-             STORAGE =    15378627.0000               STORAGE '
               '=           0.1824\n',
               '-       CONSTANT HEAD =           0.0000         CONSTANT HEAD '
               '=           0.0000\n',
               '-     HEAD DEP BOUNDS =           0.0000       HEAD DEP BOUNDS '
               '=           0.0000\n',
               '-      STREAM LEAKAGE =    30019590.0000        STREAM LEAKAGE '
               '=       1.6192E-02\n',
               '-\n',
               '-            TOTAL IN =    45398216.0000              TOTAL IN '
               '=           0.1986\n',
               '-\n',
               '-          OUT:                                     OUT:\n',
               '-          ----                                     ----\n',
               '-             STORAGE =    15953330.0000               STORAGE '
               '=           0.0000\n',
               '-       CONSTANT HEAD =           0.0000         CONSTANT HEAD '
               '=           0.0000\n',
               '-     HEAD DEP BOUNDS =    29444686.0000       HEAD DEP BOUNDS '
               '=           0.1985\n',
               '-      STREAM LEAKAGE =           0.0000        STREAM LEAKAGE '
               '=           0.0000\n',
               '-\n',
               '-           TOTAL OUT =    45398016.0000             TOTAL OUT '
               '=           0.1985\n',
               '-\n',
               '-            IN - OUT =         200.0000              IN - OUT '
               '=       1.3742E-04\n',
               '-\n',
               '- PERCENT DISCREPANCY =           0.00     PERCENT DISCREPANCY '
               '=           0.07\n',
               '-\n',
               '-\n',
               '-\n',
               '-\n',
               '-\n',
               '-\n',
               '-         TIME SUMMARY AT END OF TIME STEP   30 IN STRESS '
               'PERIOD   36\n',
               '-                    SECONDS     MINUTES      HOURS       '
               'DAYS        YEARS\n',
               '-                    '
               '-----------------------------------------------------------\n',
               '-   TIME STEP LENGTH 2.49961E+05  4166.0      69.434      '
               '2.8931     7.92080E-03\n',
               '- STRESS PERIOD TIME 2.59200E+06  43200.      720.00      '
               '30.000     8.21355E-02\n',
               '-         TOTAL TIME 9.33120E+07 1.55520E+06  25920.      '
               '1080.0      2.9569    \n',
               '-1\n',
               '-1\n',
               '-                            STRESS PERIOD NO.   37, LENGTH '
               '=   2592000.    \n',
               '-                            '
               '-----------------------------------------------\n',
               '-\n',
               '-                              NUMBER OF TIME STEPS =    30\n',
               '-\n',
               '-                               MULTIPLIER FOR DELT =     '
               '1.100\n',
               '-\n',
               '-                            INITIAL TIME STEP SIZE =   '
               '15757.40    \n',
               '-\n',
               '- REUSING NON-PARAMETER GHB CELLS FROM LAST STRESS PERIOD\n',
               '-\n',
               '-      7 GHB CELLS\n',
               '- \n',
               '- SOLVING FOR HEAD \n',
               '-\n',
               '- NO OUTPUT CONTROL FOR STRESS PERIOD   37   TIME STEP    1\n',
               '- \n',
               '- SOLVING FOR HEAD \n',
               '-\n',
               '- NO OUTPUT CONTROL FOR STRESS PERIOD   37   TIME STEP    2\n',
               '- \n',
               '- SOLVING FOR HEAD \n',
               '-\n',
               '- NO OUTPUT CONTROL FOR STRESS PERIOD   37   TIME STEP    3\n',
               '- \n',
               '- SOLVING FOR HEAD \n',
               '-\n',
               '- NO OUTPUT CONTROL FOR STRESS PERIOD   37   TIME STEP    4\n',
               '- \n',
               '- SOLVING FOR HEAD \n',
               '-\n',
               '- NO OUTPUT CONTROL FOR STRESS PERIOD   37   TIME STEP    5\n',
               '- \n',
               '- SOLVING FOR HEAD \n',
               '-\n',
               '- NO OUTPUT CONTROL FOR STRESS PERIOD   37   TIME STEP    6\n',
               '- \n',
               '- SOLVING FOR HEAD \n',
               '-\n',
               '- NO OUTPUT CONTROL FOR STRESS PERIOD   37   TIME STEP    7\n',
               '- \n',
               '- SOLVING FOR HEAD \n',
               '-\n',
               '- NO OUTPUT CONTROL FOR STRESS PERIOD   37   TIME STEP    8\n',
               '- \n',
               '- SOLVING FOR HEAD \n',
               '-\n',
               '- NO OUTPUT CONTROL FOR STRESS PERIOD   37   TIME STEP    9\n',
               '- \n',
               '- SOLVING FOR HEAD \n',
               '-\n',
               '- NO OUTPUT CONTROL FOR STRESS PERIOD   37   TIME STEP   10\n',
               '- \n',
               '- SOLVING FOR HEAD \n',
               '-\n',
               '- NO OUTPUT CONTROL FOR STRESS PERIOD   37   TIME STEP   11\n',
               '- \n',
               '- SOLVING FOR HEAD \n',
               '-\n',
               '- NO OUTPUT CONTROL FOR STRESS PERIOD   37   TIME STEP   12\n',
               '- \n',
               '- SOLVING FOR HEAD \n',
               '-\n',
               '- NO OUTPUT CONTROL FOR STRESS PERIOD   37   TIME STEP   13\n',
               '- \n',
               '- SOLVING FOR HEAD \n',
               '-\n',
               '- NO OUTPUT CONTROL FOR STRESS PERIOD   37   TIME STEP   14\n',
               '- \n',
               '- SOLVING FOR HEAD \n',
               '-\n',
               '- NO OUTPUT CONTROL FOR STRESS PERIOD   37   TIME STEP   15\n',
               '- \n',
               '- SOLVING FOR HEAD \n',
               '-\n',
               '- NO OUTPUT CONTROL FOR STRESS PERIOD   37   TIME STEP   16\n',
               '- \n',
               '- SOLVING FOR HEAD \n',
               '-\n',
               '- NO OUTPUT CONTROL FOR STRESS PERIOD   37   TIME STEP   17\n',
               '- \n',
               '- SOLVING FOR HEAD \n',
               '-\n',
               '- NO OUTPUT CONTROL FOR STRESS PERIOD   37   TIME STEP   18\n',
               '- \n',
               '- SOLVING FOR HEAD \n',
               '-\n',
               '- NO OUTPUT CONTROL FOR STRESS PERIOD   37   TIME STEP   19\n',
               '- \n',
               '- SOLVING FOR HEAD \n',
               '-\n',
               '- NO OUTPUT CONTROL FOR STRESS PERIOD   37   TIME STEP   20\n',
               '- \n',
               '- SOLVING FOR HEAD \n',
               '-\n',
               '- NO OUTPUT CONTROL FOR STRESS PERIOD   37   TIME STEP   21\n',
               '- \n',
               '- SOLVING FOR HEAD \n',
               '-\n',
               '- NO OUTPUT CONTROL FOR STRESS PERIOD   37   TIME STEP   22\n',
               '- \n',
               '- SOLVING FOR HEAD \n',
               '-\n',
               '- NO OUTPUT CONTROL FOR STRESS PERIOD   37   TIME STEP   23\n',
               '- \n',
               '- SOLVING FOR HEAD \n',
               '-\n',
               '- NO OUTPUT CONTROL FOR STRESS PERIOD   37   TIME STEP   24\n',
               '- \n',
               '- SOLVING FOR HEAD \n',
               '-\n',
               '- NO OUTPUT CONTROL FOR STRESS PERIOD   37   TIME STEP   25\n',
               '- \n',
               '- SOLVING FOR HEAD \n',
               '-\n',
               '- NO OUTPUT CONTROL FOR STRESS PERIOD   37   TIME STEP   26\n',
               '- \n',
               '- SOLVING FOR HEAD \n',
               '-\n',
               '- NO OUTPUT CONTROL FOR STRESS PERIOD   37   TIME STEP   27\n',
               '- \n',
               '- SOLVING FOR HEAD \n',
               '-\n',
               '- NO OUTPUT CONTROL FOR STRESS PERIOD   37   TIME STEP   28\n',
               '- \n',
               '- SOLVING FOR HEAD \n',
               '-\n',
               '- NO OUTPUT CONTROL FOR STRESS PERIOD   37   TIME STEP   29\n',
               '- \n',
               '- SOLVING FOR HEAD \n',
               '-\n',
               '- NO OUTPUT CONTROL FOR STRESS PERIOD   37   TIME STEP   30\n',
               '-\n',
               '-\n',
               '-\n',
               '- STREAM LISTING     PERIOD     37   STEP       30\n',
               '-\n',
               '- LAYER ROW COL. STREAM  RCH.   FLOW INTO    STREAM     FLOW '
               'OUT OF   OVRLND.    DIRECT     STREAM      STREAM      '
               'STREAM     STREAM  STREAMBED   FLOW TO   CHNG. UNSAT. \n',
               '-                SEG.NO.  NO.   STRM. RCH.    LOSS       STRM. '
               'RCH.   RUNOFF     PRECIP       ET         HEAD        '
               'DEPTH      WIDTH  CONDCTNC.   WAT. TAB.\n',
               '-\n',
               '-   1    4    1     1     1    6.2469E-02  1.9643E-04   '
               '6.2273E-02  0.000E+00  0.000E+00  0.000E+00  1.40091E+02  '
               '2.408E-01  1.743E+00  2.661E-04  1.130E-04  8.343E-05\n',
               '-   1    4    2     1     2    6.2273E-02  1.9612E-04   '
               '6.2077E-02  0.000E+00  0.000E+00  0.000E+00  1.39791E+02  '
               '2.405E-01  1.741E+00  2.658E-04  1.126E-04  8.351E-05\n',
               '-   1    4    3     1     3    6.2077E-02  1.9581E-04   '
               '6.1881E-02  0.000E+00  0.000E+00  0.000E+00  1.39490E+02  '
               '2.403E-01  1.739E+00  2.655E-04  1.122E-04  8.360E-05\n',
               '-   1    4    4     1     4    6.1881E-02  1.9550E-04   '
               '6.1685E-02  0.000E+00  0.000E+00  0.000E+00  1.39190E+02  '
               '2.400E-01  1.737E+00  2.652E-04  1.118E-04  8.369E-05\n',
               '-   1    4    5     1     5    6.1685E-02  1.9519E-04   '
               '6.1490E-02  0.000E+00  0.000E+00  0.000E+00  1.38890E+02  '
               '2.397E-01  1.735E+00  2.649E-04  1.114E-04  8.379E-05\n',
               '-   1    4    6     1     6    6.1490E-02  1.9488E-04   '
               '6.1295E-02  0.000E+00  0.000E+00  0.000E+00  1.38589E+02  '
               '2.394E-01  1.733E+00  2.645E-04  1.069E-04  8.796E-05\n',
               '-   1    4    7     1     7    6.1295E-02  1.9457E-04   '
               '6.1101E-02  0.000E+00  0.000E+00  0.000E+00  1.38289E+02  '
               '2.391E-01  1.731E+00  2.642E-04  1.065E-04  8.805E-05\n',
               '-   1    4    8     1     8    6.1101E-02  1.9426E-04   '
               '6.0906E-02  0.000E+00  0.000E+00  0.000E+00  1.37989E+02  '
               '2.388E-01  1.729E+00  2.639E-04  1.061E-04  8.815E-05\n',
               '-   1    4    9     1     9    6.0906E-02  1.9395E-04   '
               '6.0713E-02  0.000E+00  0.000E+00  0.000E+00  1.37689E+02  '
               '2.386E-01  1.727E+00  2.636E-04  1.057E-04  8.826E-05\n',
               '-   1    4   10     1    10    6.0713E-02  1.9365E-04   '
               '6.0519E-02  0.000E+00  0.000E+00  0.000E+00  1.37388E+02  '
               '2.383E-01  1.725E+00  2.633E-04  1.053E-04  8.838E-05\n',
               '-   1    4   11     1    11    6.0519E-02  1.9334E-04   '
               '6.0326E-02  0.000E+00  0.000E+00  0.000E+00  1.37088E+02  '
               '2.380E-01  1.723E+00  2.630E-04  1.048E-04  8.851E-05\n',
               '-   1    4   12     1    12    6.0326E-02  1.9303E-04   '
               '6.0133E-02  0.000E+00  0.000E+00  0.000E+00  1.36788E+02  '
               '2.377E-01  1.720E+00  2.627E-04  1.044E-04  8.864E-05\n',
               '-   1    4   13     1    13    6.0133E-02  1.9272E-04   '
               '5.9940E-02  0.000E+00  0.000E+00  0.000E+00  1.36487E+02  '
               '2.374E-01  1.718E+00  2.623E-04  1.039E-04  8.877E-05\n',
               '-   1    4   14     1    14    5.9940E-02  1.9241E-04   '
               '5.9747E-02  0.000E+00  0.000E+00  0.000E+00  1.36187E+02  '
               '2.371E-01  1.716E+00  2.620E-04  1.035E-04  8.891E-05\n',
               '-   1    4   15     1    15    5.9747E-02  1.9210E-04   '
               '5.9555E-02  0.000E+00  0.000E+00  0.000E+00  1.35887E+02  '
               '2.368E-01  1.714E+00  2.617E-04  1.030E-04  8.906E-05\n',
               '-   1    4   16     1    16    5.9555E-02  1.9179E-04   '
               '5.9363E-02  0.000E+00  0.000E+00  0.000E+00  1.35587E+02  '
               '2.366E-01  1.712E+00  2.614E-04  1.026E-04  8.922E-05\n',
               '-   1    4   17     1    17    5.9363E-02  1.9148E-04   '
               '5.9172E-02  0.000E+00  0.000E+00  0.000E+00  1.35286E+02  '
               '2.363E-01  1.710E+00  2.611E-04  1.016E-04  8.984E-05\n',
               '-   1    4   18     1    18    5.9172E-02  1.9117E-04   '
               '5.8981E-02  0.000E+00  0.000E+00  0.000E+00  1.34986E+02  '
               '2.360E-01  1.708E+00  2.608E-04  1.007E-04  9.047E-05\n',
               '-   1    4   19     1    19    5.8981E-02  1.9087E-04   '
               '5.8790E-02  0.000E+00  0.000E+00  0.000E+00  1.34686E+02  '
               '2.357E-01  1.706E+00  2.604E-04  9.980E-05  9.107E-05\n',
               '-   1    4   20     1    20    5.8790E-02  1.9056E-04   '
               '5.8599E-02  0.000E+00  0.000E+00  0.000E+00  1.34385E+02  '
               '2.354E-01  1.704E+00  2.601E-04  9.892E-05  9.164E-05\n',
               '-   1    4   21     1    21    5.8599E-02  1.9025E-04   '
               '5.8409E-02  0.000E+00  0.000E+00  0.000E+00  1.34085E+02  '
               '2.351E-01  1.702E+00  2.598E-04  9.823E-05  9.202E-05\n',
               '-   1    4   22     1    22    5.8409E-02  1.8994E-04   '
               '5.8219E-02  0.000E+00  0.000E+00  0.000E+00  1.33785E+02  '
               '2.348E-01  1.700E+00  2.595E-04  9.777E-05  9.217E-05\n',
               '-   1    4   23     1    23    5.8219E-02  1.8963E-04   '
               '5.8030E-02  0.000E+00  0.000E+00  0.000E+00  1.33485E+02  '
               '2.345E-01  1.698E+00  2.592E-04  9.731E-05  9.232E-05\n',
               '-   1    4   24     1    24    5.8030E-02  1.8932E-04   '
               '5.7840E-02  0.000E+00  0.000E+00  0.000E+00  1.33184E+02  '
               '2.343E-01  1.696E+00  2.589E-04  9.685E-05  9.247E-05\n',
               '-   1    4   25     1    25    5.7840E-02  1.8902E-04   '
               '5.7651E-02  0.000E+00  0.000E+00  0.000E+00  1.32884E+02  '
               '2.340E-01  1.694E+00  2.585E-04  9.638E-05  9.263E-05\n',
               '-   1    4   26     1    26    5.7651E-02  1.8871E-04   '
               '5.7463E-02  0.000E+00  0.000E+00  0.000E+00  1.32584E+02  '
               '2.337E-01  1.691E+00  2.582E-04  9.591E-05  9.280E-05\n',
               '-   1    4   27     1    27    5.7463E-02  1.8840E-04   '
               '5.7274E-02  0.000E+00  0.000E+00  0.000E+00  1.32283E+02  '
               '2.334E-01  1.689E+00  2.579E-04  9.544E-05  9.296E-05\n',
               '-   1    4   28     1    28    5.7274E-02  1.8809E-04   '
               '5.7086E-02  0.000E+00  0.000E+00  0.000E+00  1.31983E+02  '
               '2.331E-01  1.687E+00  2.576E-04  9.496E-05  9.313E-05\n',
               '-   1    4   29     1    29    5.7086E-02  1.8778E-04   '
               '5.6898E-02  0.000E+00  0.000E+00  0.000E+00  1.31683E+02  '
               '2.328E-01  1.685E+00  2.573E-04  9.448E-05  9.330E-05\n',
               '-   1    4   30     1    30    5.6898E-02  1.8748E-04   '
               '5.6711E-02  0.000E+00  0.000E+00  0.000E+00  1.31383E+02  '
               '2.325E-01  1.683E+00  2.570E-04  9.400E-05  9.348E-05\n',
               '-   1    4   31     1    31    5.6711E-02  1.8717E-04   '
               '5.6524E-02  0.000E+00  0.000E+00  0.000E+00  1.31082E+02  '
               '2.322E-01  1.681E+00  2.566E-04  9.351E-05  9.365E-05\n',
               '-   1    4   32     1    32    5.6524E-02  1.8686E-04   '
               '5.6337E-02  0.000E+00  0.000E+00  0.000E+00  1.30782E+02  '
               '2.320E-01  1.679E+00  2.563E-04  9.303E-05  9.383E-05\n',
               '-   1    4   33     1    33    5.6337E-02  1.8655E-04   '
               '5.6150E-02  0.000E+00  0.000E+00  0.000E+00  1.30482E+02  '
               '2.317E-01  1.677E+00  2.560E-04  9.254E-05  9.401E-05\n',
               '-   1    4   34     1    34    5.6150E-02  1.8624E-04   '
               '5.5964E-02  0.000E+00  0.000E+00  0.000E+00  1.30181E+02  '
               '2.314E-01  1.675E+00  2.557E-04  9.205E-05  9.419E-05\n',
               '-   1    4   35     1    35    5.5964E-02  1.8594E-04   '
               '5.5778E-02  0.000E+00  0.000E+00  0.000E+00  1.29881E+02  '
               '2.311E-01  1.673E+00  2.554E-04  9.156E-05  9.438E-05\n',
               '-   1    4   36     1    36    5.5778E-02  1.8563E-04   '
               '5.5592E-02  0.000E+00  0.000E+00  0.000E+00  1.29581E+02  '
               '2.308E-01  1.671E+00  2.550E-04  9.107E-05  9.456E-05\n',
               '-   1    4   37     1    37    5.5592E-02  1.8532E-04   '
               '5.5407E-02  0.000E+00  0.000E+00  0.000E+00  1.29281E+02  '
               '2.305E-01  1.668E+00  2.547E-04  9.057E-05  9.475E-05\n',
               '-   1    4   38     1    38    5.5407E-02  1.8501E-04   '
               '5.5222E-02  0.000E+00  0.000E+00  0.000E+00  1.28980E+02  '
               '2.302E-01  1.666E+00  2.544E-04  9.008E-05  9.493E-05\n',
               '-   1    4   39     1    39    5.5222E-02  1.8470E-04   '
               '5.5037E-02  0.000E+00  0.000E+00  0.000E+00  1.28680E+02  '
               '2.299E-01  1.664E+00  2.541E-04  8.958E-05  9.512E-05\n',
               '-   1    4   40     1    40    5.5037E-02  1.8440E-04   '
               '5.4853E-02  0.000E+00  0.000E+00  0.000E+00  1.28380E+02  '
               '2.296E-01  1.662E+00  2.538E-04  8.909E-05  9.531E-05\n',
               '-   1    4   41     1    41    5.4853E-02  1.8409E-04   '
               '5.4669E-02  0.000E+00  0.000E+00  0.000E+00  1.28079E+02  '
               '2.294E-01  1.660E+00  2.534E-04  8.862E-05  9.547E-05\n',
               '-   1    4   42     1    42    5.4669E-02  1.8378E-04   '
               '5.4485E-02  0.000E+00  0.000E+00  0.000E+00  1.27779E+02  '
               '2.291E-01  1.658E+00  2.531E-04  8.825E-05  9.554E-05\n',
               '-   1    4   43     1    43    5.4485E-02  1.8348E-04   '
               '5.4302E-02  0.000E+00  0.000E+00  0.000E+00  1.27479E+02  '
               '2.288E-01  1.656E+00  2.528E-04  8.823E-05  9.525E-05\n',
               '-   1    4   44     1    44    5.4302E-02  1.8317E-04   '
               '5.4118E-02  0.000E+00  0.000E+00  0.000E+00  1.27178E+02  '
               '2.285E-01  1.654E+00  2.525E-04  8.825E-05  9.492E-05\n',
               '-   1    4   45     1    45    5.4118E-02  1.8286E-04   '
               '5.3936E-02  0.000E+00  0.000E+00  0.000E+00  1.26878E+02  '
               '2.282E-01  1.652E+00  2.522E-04  8.824E-05  9.463E-05\n',
               '-   1    4   46     1    46    5.3936E-02  1.8255E-04   '
               '5.3753E-02  0.000E+00  0.000E+00  0.000E+00  1.26578E+02  '
               '2.279E-01  1.650E+00  2.518E-04  8.775E-05  9.480E-05\n',
               '-   1    4   47     1    47    5.3753E-02  1.8225E-04   '
               '5.3571E-02  0.000E+00  0.000E+00  0.000E+00  1.26278E+02  '
               '2.276E-01  1.648E+00  2.515E-04  8.728E-05  9.497E-05\n',
               '-   1    4   48     1    48    5.3571E-02  1.8194E-04   '
               '5.3389E-02  0.000E+00  0.000E+00  0.000E+00  1.25977E+02  '
               '2.273E-01  1.645E+00  2.512E-04  8.680E-05  9.514E-05\n',
               '-   1    4   49     1    49    5.3389E-02  1.8163E-04   '
               '5.3207E-02  0.000E+00  0.000E+00  0.000E+00  1.25677E+02  '
               '2.270E-01  1.643E+00  2.509E-04  8.632E-05  9.531E-05\n',
               '-   1    4   50     1    50    5.3207E-02  1.8132E-04   '
               '5.3026E-02  0.000E+00  0.000E+00  0.000E+00  1.25377E+02  '
               '2.268E-01  1.641E+00  2.506E-04  8.585E-05  9.548E-05\n',
               '-   1    4   51     1    51    5.3026E-02  1.8102E-04   '
               '5.2845E-02  0.000E+00  0.000E+00  0.000E+00  1.25076E+02  '
               '2.265E-01  1.639E+00  2.502E-04  8.538E-05  9.564E-05\n',
               '-   1    4   52     1    52    5.2845E-02  1.8071E-04   '
               '5.2664E-02  0.000E+00  0.000E+00  0.000E+00  1.24776E+02  '
               '2.262E-01  1.637E+00  2.499E-04  8.491E-05  9.580E-05\n',
               '-   1    4   53     1    53    5.2664E-02  1.8040E-04   '
               '5.2484E-02  0.000E+00  0.000E+00  0.000E+00  1.24476E+02  '
               '2.259E-01  1.635E+00  2.496E-04  8.445E-05  9.596E-05\n',
               '-   1    4   54     1    54    5.2484E-02  1.8010E-04   '
               '5.2304E-02  0.000E+00  0.000E+00  0.000E+00  1.24176E+02  '
               '2.256E-01  1.633E+00  2.493E-04  8.399E-05  9.611E-05\n',
               '-   1    4   55     1    55    5.2304E-02  1.7979E-04   '
               '5.2124E-02  0.000E+00  0.000E+00  0.000E+00  1.23875E+02  '
               '2.253E-01  1.631E+00  2.490E-04  8.353E-05  9.626E-05\n',
               '-   1    4   56     1    56    5.2124E-02  1.7948E-04   '
               '5.1944E-02  0.000E+00  0.000E+00  0.000E+00  1.23575E+02  '
               '2.250E-01  1.629E+00  2.486E-04  8.308E-05  9.641E-05\n',
               '-   1    4   57     1    57    5.1944E-02  1.7918E-04   '
               '5.1765E-02  0.000E+00  0.000E+00  0.000E+00  1.23275E+02  '
               '2.247E-01  1.627E+00  2.483E-04  8.263E-05  9.655E-05\n',
               '-   1    4   58     1    58    5.1765E-02  1.7887E-04   '
               '5.1586E-02  0.000E+00  0.000E+00  0.000E+00  1.22974E+02  '
               '2.244E-01  1.624E+00  2.480E-04  8.218E-05  9.669E-05\n',
               '-   1    4   59     1    59    5.1586E-02  1.7856E-04   '
               '5.1408E-02  0.000E+00  0.000E+00  0.000E+00  1.22674E+02  '
               '2.241E-01  1.622E+00  2.477E-04  8.174E-05  9.682E-05\n',
               '-   1    4   60     1    60    5.1408E-02  1.7826E-04   '
               '5.1230E-02  0.000E+00  0.000E+00  0.000E+00  1.22374E+02  '
               '2.238E-01  1.620E+00  2.474E-04  8.170E-05  9.656E-05\n',
               '-   1    4   61     1    61    5.1230E-02  1.7795E-04   '
               '5.1052E-02  0.000E+00  0.000E+00  0.000E+00  1.22074E+02  '
               '2.236E-01  1.618E+00  2.470E-04  8.218E-05  9.577E-05\n',
               '-   1    4   62     1    62    5.1052E-02  1.7764E-04   '
               '5.0874E-02  0.000E+00  0.000E+00  0.000E+00  1.21773E+02  '
               '2.233E-01  1.616E+00  2.467E-04  8.174E-05  9.590E-05\n',
               '-   1    4   63     1    63    5.0874E-02  1.7734E-04   '
               '5.0697E-02  0.000E+00  0.000E+00  0.000E+00  1.21473E+02  '
               '2.230E-01  1.614E+00  2.464E-04  8.130E-05  9.603E-05\n',
               '-   1    4   64     1    64    5.0697E-02  1.7703E-04   '
               '5.0520E-02  0.000E+00  0.000E+00  0.000E+00  1.21173E+02  '
               '2.227E-01  1.612E+00  2.461E-04  8.087E-05  9.616E-05\n',
               '-   1    4   65     1    65    5.0520E-02  1.7672E-04   '
               '5.0343E-02  0.000E+00  0.000E+00  0.000E+00  1.20872E+02  '
               '2.224E-01  1.610E+00  2.457E-04  8.045E-05  9.628E-05\n',
               '-   1    4   66     1    66    5.0343E-02  1.7642E-04   '
               '5.0166E-02  0.000E+00  0.000E+00  0.000E+00  1.20572E+02  '
               '2.221E-01  1.608E+00  2.454E-04  8.003E-05  9.639E-05\n',
               '-   1    4   67     1    67    5.0166E-02  1.7611E-04   '
               '4.9990E-02  0.000E+00  0.000E+00  0.000E+00  1.20272E+02  '
               '2.218E-01  1.605E+00  2.451E-04  7.962E-05  9.649E-05\n',
               '-   1    4   68     1    68    4.9990E-02  1.7581E-04   '
               '4.9815E-02  0.000E+00  0.000E+00  0.000E+00  1.19972E+02  '
               '2.215E-01  1.603E+00  2.448E-04  7.978E-05  9.603E-05\n',
               '-   1    4   69     1    69    4.9815E-02  1.7550E-04   '
               '4.9639E-02  0.000E+00  0.000E+00  0.000E+00  1.19671E+02  '
               '2.212E-01  1.601E+00  2.444E-04  8.007E-05  9.543E-05\n',
               '-   1    4   70     1    70    4.9639E-02  1.7519E-04   '
               '4.9464E-02  0.000E+00  0.000E+00  0.000E+00  1.19371E+02  '
               '2.209E-01  1.599E+00  2.441E-04  7.966E-05  9.553E-05\n',
               '-   1    4   71     1    71    4.9464E-02  1.7489E-04   '
               '4.9289E-02  0.000E+00  0.000E+00  0.000E+00  1.19071E+02  '
               '2.206E-01  1.597E+00  2.438E-04  7.926E-05  9.563E-05\n',
               '-   1    4   72     1    72    4.9289E-02  1.7458E-04   '
               '4.9114E-02  0.000E+00  0.000E+00  0.000E+00  1.18770E+02  '
               '2.203E-01  1.595E+00  2.435E-04  7.887E-05  9.571E-05\n',
               '-   1    4   73     1    73    4.9114E-02  1.7427E-04   '
               '4.8940E-02  0.000E+00  0.000E+00  0.000E+00  1.18470E+02  '
               '2.200E-01  1.593E+00  2.432E-04  7.850E-05  9.578E-05\n',
               '-   1    4   74     1    74    4.8940E-02  1.7397E-04   '
               '4.8766E-02  0.000E+00  0.000E+00  0.000E+00  1.18170E+02  '
               '2.197E-01  1.591E+00  2.428E-04  7.932E-05  9.465E-05\n',
               '-   1    4   75     1    75    4.8766E-02  1.7366E-04   '
               '4.8592E-02  0.000E+00  0.000E+00  0.000E+00  1.17869E+02  '
               '2.195E-01  1.588E+00  2.425E-04  8.130E-05  9.237E-05\n',
               '-   1    4   76     1    76    4.8592E-02  1.7336E-04   '
               '4.8419E-02  0.000E+00  0.000E+00  0.000E+00  1.17569E+02  '
               '2.192E-01  1.586E+00  2.422E-04  8.095E-05  9.241E-05\n',
               '-   1    4   77     1    77    4.8419E-02  1.7305E-04   '
               '4.8246E-02  0.000E+00  0.000E+00  0.000E+00  1.17269E+02  '
               '2.189E-01  1.584E+00  2.419E-04  8.062E-05  9.244E-05\n',
               '-   1    4   78     1    78    4.8246E-02  1.7275E-04   '
               '4.8073E-02  0.000E+00  0.000E+00  0.000E+00  1.16969E+02  '
               '2.186E-01  1.582E+00  2.415E-04  8.142E-05  9.133E-05\n',
               '-   1    4   79     1    79    4.8073E-02  1.7244E-04   '
               '4.7901E-02  0.000E+00  0.000E+00  0.000E+00  1.16668E+02  '
               '2.183E-01  1.580E+00  2.412E-04  8.110E-05  9.134E-05\n',
               '-   1    4   80     1    80    4.7901E-02  1.7213E-04   '
               '4.7729E-02  0.000E+00  0.000E+00  0.000E+00  1.16368E+02  '
               '2.180E-01  1.578E+00  2.409E-04  8.077E-05  9.137E-05\n',
               '-   1    4   81     1    81    4.7729E-02  1.7183E-04   '
               '4.7557E-02  0.000E+00  0.000E+00  0.000E+00  1.16068E+02  '
               '2.177E-01  1.576E+00  2.406E-04  8.309E-05  8.874E-05\n',
               '-   1    4   82     1    82    4.7557E-02  1.7152E-04   '
               '4.7385E-02  0.000E+00  0.000E+00  0.000E+00  1.15767E+02  '
               '2.174E-01  1.574E+00  2.402E-04  8.538E-05  8.614E-05\n',
               '-   1    4   83     1    83    4.7385E-02  1.7122E-04   '
               '4.7214E-02  0.000E+00  0.000E+00  0.000E+00  1.15467E+02  '
               '2.171E-01  1.571E+00  2.399E-04  8.800E-05  8.322E-05\n',
               '-   1    4   84     1    84    4.7214E-02  1.7091E-04   '
               '4.7043E-02  0.000E+00  0.000E+00  0.000E+00  1.15167E+02  '
               '2.168E-01  1.569E+00  2.396E-04  9.082E-05  8.009E-05\n',
               '-   1    4   85     1    85    4.7043E-02  1.7061E-04   '
               '4.6873E-02  0.000E+00  0.000E+00  0.000E+00  1.14867E+02  '
               '2.165E-01  1.567E+00  2.393E-04  9.947E-05  7.114E-05\n',
               '-   1    4   86     1    86    4.6873E-02  1.7030E-04   '
               '4.6702E-02  0.000E+00  0.000E+00  0.000E+00  1.14566E+02  '
               '2.162E-01  1.565E+00  2.389E-04  1.029E-04  6.745E-05\n',
               '-   1    4   87     1    87    4.6702E-02  1.7000E-04   '
               '4.6532E-02  0.000E+00  0.000E+00  0.000E+00  1.14266E+02  '
               '2.159E-01  1.563E+00  2.386E-04  1.058E-04  6.424E-05\n',
               '-   1    4   88     1    88    4.6532E-02  1.6969E-04   '
               '4.6363E-02  0.000E+00  0.000E+00  0.000E+00  1.13966E+02  '
               '2.156E-01  1.561E+00  2.383E-04  1.096E-04  6.012E-05\n',
               '-   1    4   89     1    89    4.6363E-02  1.6938E-04   '
               '4.6193E-02  0.000E+00  0.000E+00  0.000E+00  1.13665E+02  '
               '2.153E-01  1.559E+00  2.379E-04  1.128E-04  5.663E-05\n',
               '-   1    4   90     1    90    4.6193E-02  1.6908E-04   '
               '4.6024E-02  0.000E+00  0.000E+00  0.000E+00  1.13365E+02  '
               '2.150E-01  1.556E+00  2.376E-04  1.167E-04  5.234E-05\n',
               '-   1    4   91     1    91    4.6024E-02  1.6877E-04   '
               '4.5855E-02  0.000E+00  0.000E+00  0.000E+00  1.13065E+02  '
               '2.147E-01  1.554E+00  2.373E-04  1.212E-04  4.753E-05\n',
               '-   1    4   92     1    92    4.5855E-02  1.6847E-04   '
               '4.5687E-02  0.000E+00  0.000E+00  0.000E+00  1.12764E+02  '
               '2.144E-01  1.552E+00  2.370E-04  1.248E-04  4.364E-05\n',
               '-   1    4   93     1    93    4.5687E-02  1.6816E-04   '
               '4.5519E-02  0.000E+00  0.000E+00  0.000E+00  1.12464E+02  '
               '2.141E-01  1.550E+00  2.366E-04  1.290E-04  3.918E-05\n',
               '-   1    4   94     1    94    4.5519E-02  1.6786E-04   '
               '4.5351E-02  0.000E+00  0.000E+00  0.000E+00  1.12164E+02  '
               '2.139E-01  1.548E+00  2.363E-04  1.389E-04  2.895E-05\n',
               '-   1    4   95     1    95    4.5351E-02  1.6755E-04   '
               '4.5183E-02  0.000E+00  0.000E+00  0.000E+00  1.11864E+02  '
               '2.136E-01  1.546E+00  2.360E-04  1.439E-04  2.370E-05\n',
               '-   1    4   96     1    96    4.5183E-02  1.6725E-04   '
               '4.5016E-02  0.000E+00  0.000E+00  0.000E+00  1.11563E+02  '
               '2.133E-01  1.544E+00  2.357E-04  1.486E-04  1.863E-05\n',
               '-   1    4   97     1    97    4.5016E-02  1.6694E-04   '
               '4.4849E-02  0.000E+00  0.000E+00  0.000E+00  1.11263E+02  '
               '2.130E-01  1.541E+00  2.353E-04  1.538E-04  1.318E-05\n',
               '-   1    4   98     1    98    4.4849E-02  1.6664E-04   '
               '4.4683E-02  0.000E+00  0.000E+00  0.000E+00  1.10963E+02  '
               '2.127E-01  1.539E+00  2.350E-04  1.592E-04  7.396E-06\n',
               '-   1    4   99     1    99    4.4683E-02  1.6633E-04   '
               '4.4516E-02  0.000E+00  0.000E+00  0.000E+00  1.10662E+02  '
               '2.124E-01  1.537E+00  2.347E-04  1.648E-04  1.498E-06\n',
               '-   1    4  100     1   100    4.4516E-02  1.6603E-04   '
               '4.4350E-02  0.000E+00  0.000E+00  0.000E+00  1.10362E+02  '
               '2.121E-01  1.535E+00  2.343E-04  1.705E-04 -4.456E-06\n',
               '-\n',
               '-\n',
               '-\n',
               '-1\n',
               '-  VOLUMETRIC BUDGET FOR UNSATURATED ZONE BENEATH STREAMS AT '
               'END OF TIME STEP    30 STRESS PERIOD  37\n',
               '-  '
               '------------------------------------------------------------------------------------------------\n',
               '-\n',
               '-    CUMULATIVE VOLUMES             L**3    RATES FOR THIS '
               'TIME STEP         L**3/T\n',
               '-    ------------------                     '
               '------------------------\n',
               '-\n',
               '-\n',
               '-          STREAM LOSS =     30288840.0000            STREAM '
               'LOSS =        1.8119E-02\n',
               '-    CHANGE IN STORAGE =       243176.9531      CHANGE IN '
               'STORAGE =        8.3636E-03\n',
               '-       RECHARGE TO GW =     30049762.0000         RECHARGE TO '
               'GW =        9.7555E-03\n',
               '-\n',
               '-             TOTAL IN =     30288840.0000               TOTAL '
               'IN =        1.8119E-02\n',
               '-\n',
               '-            TOTAL OUT =     30292938.0000              TOTAL '
               'OUT =        1.8119E-02\n',
               '-\n',
               '-             IN - OUT =        -4098.0000               IN - '
               'OUT =        5.5879E-09\n',
               '-\n',
               '-  PERCENT DISCREPANCY =           -0.00      PERCENT '
               'DISCREPANCY =             0.00\n',
               '-\n',
               '-\n',
               '-\n',
               '-1\n',
               '-  VOLUMETRIC BUDGET FOR ENTIRE MODEL AT END OF TIME STEP   '
               '30, STRESS PERIOD  37\n',
               '-  '
               '------------------------------------------------------------------------------\n',
               '-\n',
               '-     CUMULATIVE VOLUMES      L**3       RATES FOR THIS TIME '
               'STEP      L**3/T\n',
               '-     ------------------                 '
               '------------------------\n',
               '-\n',
               '-           IN:                                      IN:\n',
               '-           ---                                      ---\n',
               '-             STORAGE =    15857544.0000               STORAGE '
               '=           0.1847\n',
               '-       CONSTANT HEAD =           0.0000         CONSTANT HEAD '
               '=           0.0000\n',
               '-     HEAD DEP BOUNDS =           0.0000       HEAD DEP BOUNDS '
               '=           0.0000\n',
               '-      STREAM LEAKAGE =    30049702.0000        STREAM LEAKAGE '
               '=       9.7555E-03\n',
               '-\n',
               '-            TOTAL IN =    45907248.0000              TOTAL IN '
               '=           0.1945\n',
               '-\n',
               '-          OUT:                                     OUT:\n',
               '-          ----                                     ----\n',
               '-             STORAGE =    15953330.0000               STORAGE '
               '=           0.0000\n',
               '-       CONSTANT HEAD =           0.0000         CONSTANT HEAD '
               '=           0.0000\n',
               '-     HEAD DEP BOUNDS =    29953692.0000       HEAD DEP BOUNDS '
               '=           0.1943\n',
               '-      STREAM LEAKAGE =           0.0000        STREAM LEAKAGE '
               '=           0.0000\n',
               '-\n',
               '-           TOTAL OUT =    45907024.0000             TOTAL OUT '
               '=           0.1943\n',
               '-\n',
               '-            IN - OUT =         224.0000              IN - OUT '
               '=       1.1851E-04\n',
               '-\n',
               '- PERCENT DISCREPANCY =           0.00     PERCENT DISCREPANCY '
               '=           0.06\n',
               '-\n',
               '-\n',
               '-\n',
               '-\n',
               '-\n',
               '-\n',
               '-         TIME SUMMARY AT END OF TIME STEP   30 IN STRESS '
               'PERIOD   37\n',
               '-                    SECONDS     MINUTES      HOURS       '
               'DAYS        YEARS\n',
               '-                    '
               '-----------------------------------------------------------\n',
               '-   TIME STEP LENGTH 2.49961E+05  4166.0      69.434      '
               '2.8931     7.92080E-03\n',
               '- STRESS PERIOD TIME 2.59200E+06  43200.      720.00      '
               '30.000     8.21355E-02\n',
               '-         TOTAL TIME 9.59040E+07 1.59840E+06  26640.      '
               '1110.0      3.0390    \n',
               '-1\n',
               '-1\n',
               '-                            STRESS PERIOD NO.   38, LENGTH '
               '=   2592000.    \n',
               '-                            '
               '-----------------------------------------------\n',
               '-\n',
               '-                              NUMBER OF TIME STEPS =    30\n',
               '-\n',
               '-                               MULTIPLIER FOR DELT =     '
               '1.100\n',
               '-\n',
               '-                            INITIAL TIME STEP SIZE =   '
               '15757.40    \n',
               '-\n',
               '- REUSING NON-PARAMETER GHB CELLS FROM LAST STRESS PERIOD\n',
               '-\n',
               '-      7 GHB CELLS\n',
               '- \n',
               '- SOLVING FOR HEAD \n',
               '-\n',
               '- NO OUTPUT CONTROL FOR STRESS PERIOD   38   TIME STEP    1\n',
               '- \n',
               '- SOLVING FOR HEAD \n',
               '-\n',
               '- NO OUTPUT CONTROL FOR STRESS PERIOD   38   TIME STEP    2\n',
               '- \n',
               '- SOLVING FOR HEAD \n',
               '-\n',
               '- NO OUTPUT CONTROL FOR STRESS PERIOD   38   TIME STEP    3\n',
               '- \n',
               '- SOLVING FOR HEAD \n',
               '-\n',
               '- NO OUTPUT CONTROL FOR STRESS PERIOD   38   TIME STEP    4\n',
               '- \n',
               '- SOLVING FOR HEAD \n',
               '-\n',
               '- NO OUTPUT CONTROL FOR STRESS PERIOD   38   TIME STEP    5\n',
               '- \n',
               '- SOLVING FOR HEAD \n',
               '-\n',
               '- NO OUTPUT CONTROL FOR STRESS PERIOD   38   TIME STEP    6\n',
               '- \n',
               '- SOLVING FOR HEAD \n',
               '-\n',
               '- NO OUTPUT CONTROL FOR STRESS PERIOD   38   TIME STEP    7\n',
               '- \n',
               '- SOLVING FOR HEAD \n',
               '-\n',
               '- NO OUTPUT CONTROL FOR STRESS PERIOD   38   TIME STEP    8\n',
               '- \n',
               '- SOLVING FOR HEAD \n',
               '-\n',
               '- NO OUTPUT CONTROL FOR STRESS PERIOD   38   TIME STEP    9\n',
               '- \n',
               '- SOLVING FOR HEAD \n',
               '-\n',
               '- NO OUTPUT CONTROL FOR STRESS PERIOD   38   TIME STEP   10\n',
               '- \n',
               '- SOLVING FOR HEAD \n',
               '-\n',
               '- NO OUTPUT CONTROL FOR STRESS PERIOD   38   TIME STEP   11\n',
               '- \n',
               '- SOLVING FOR HEAD \n',
               '-\n',
               '- NO OUTPUT CONTROL FOR STRESS PERIOD   38   TIME STEP   12\n',
               '- \n',
               '- SOLVING FOR HEAD \n',
               '-\n',
               '- NO OUTPUT CONTROL FOR STRESS PERIOD   38   TIME STEP   13\n',
               '- \n',
               '- SOLVING FOR HEAD \n',
               '-\n',
               '- NO OUTPUT CONTROL FOR STRESS PERIOD   38   TIME STEP   14\n',
               '- \n',
               '- SOLVING FOR HEAD \n',
               '-\n',
               '- NO OUTPUT CONTROL FOR STRESS PERIOD   38   TIME STEP   15\n',
               '- \n',
               '- SOLVING FOR HEAD \n',
               '-\n',
               '- NO OUTPUT CONTROL FOR STRESS PERIOD   38   TIME STEP   16\n',
               '- \n',
               '- SOLVING FOR HEAD \n',
               '-\n',
               '- NO OUTPUT CONTROL FOR STRESS PERIOD   38   TIME STEP   17\n',
               '- \n',
               '- SOLVING FOR HEAD \n',
               '-\n',
               '- NO OUTPUT CONTROL FOR STRESS PERIOD   38   TIME STEP   18\n',
               '- \n',
               '- SOLVING FOR HEAD \n',
               '-\n',
               '- NO OUTPUT CONTROL FOR STRESS PERIOD   38   TIME STEP   19\n',
               '- \n',
               '- SOLVING FOR HEAD \n',
               '-\n',
               '- NO OUTPUT CONTROL FOR STRESS PERIOD   38   TIME STEP   20\n',
               '- \n',
               '- SOLVING FOR HEAD \n',
               '-\n',
               '- NO OUTPUT CONTROL FOR STRESS PERIOD   38   TIME STEP   21\n',
               '- \n',
               '- SOLVING FOR HEAD \n',
               '-\n',
               '- NO OUTPUT CONTROL FOR STRESS PERIOD   38   TIME STEP   22\n',
               '- \n',
               '- SOLVING FOR HEAD \n',
               '-\n',
               '- NO OUTPUT CONTROL FOR STRESS PERIOD   38   TIME STEP   23\n',
               '- \n',
               '- SOLVING FOR HEAD \n',
               '-\n',
               '- NO OUTPUT CONTROL FOR STRESS PERIOD   38   TIME STEP   24\n',
               '- \n',
               '- SOLVING FOR HEAD \n',
               '-\n',
               '- NO OUTPUT CONTROL FOR STRESS PERIOD   38   TIME STEP   25\n',
               '- \n',
               '- SOLVING FOR HEAD \n',
               '-\n',
               '- NO OUTPUT CONTROL FOR STRESS PERIOD   38   TIME STEP   26\n',
               '- \n',
               '- SOLVING FOR HEAD \n',
               '-\n',
               '- NO OUTPUT CONTROL FOR STRESS PERIOD   38   TIME STEP   27\n',
               '- \n',
               '- SOLVING FOR HEAD \n',
               '-\n',
               '- NO OUTPUT CONTROL FOR STRESS PERIOD   38   TIME STEP   28\n',
               '- \n',
               '- SOLVING FOR HEAD \n',
               '-\n',
               '- NO OUTPUT CONTROL FOR STRESS PERIOD   38   TIME STEP   29\n',
               '- \n',
               '- SOLVING FOR HEAD \n',
               '-\n',
               '- NO OUTPUT CONTROL FOR STRESS PERIOD   38   TIME STEP   30\n',
               '-\n',
               '-\n',
               '-\n',
               '- STREAM LISTING     PERIOD     38   STEP       30\n',
               '-\n',
               '- LAYER ROW COL. STREAM  RCH.   FLOW INTO    STREAM     FLOW '
               'OUT OF   OVRLND.    DIRECT     STREAM      STREAM      '
               'STREAM     STREAM  STREAMBED   FLOW TO   CHNG. UNSAT. \n',
               '-                SEG.NO.  NO.   STRM. RCH.    LOSS       STRM. '
               'RCH.   RUNOFF     PRECIP       ET         HEAD        '
               'DEPTH      WIDTH  CONDCTNC.   WAT. TAB.\n',
               '-\n',
               '-   1    4    1     1     1    3.7299E+00  1.3773E-03   '
               '3.7285E+00  0.000E+00  0.000E+00  0.000E+00  1.41299E+02  '
               '1.449E+00  3.546E+00  7.065E-04  1.387E-03 -1.023E-05\n',
               '-   1    4    2     1     2    3.7285E+00  1.3769E-03   '
               '3.7271E+00  0.000E+00  0.000E+00  0.000E+00  1.40999E+02  '
               '1.449E+00  3.546E+00  7.064E-04  1.387E-03 -1.015E-05\n',
               '-   1    4    3     1     3    3.7271E+00  1.3765E-03   '
               '3.7257E+00  0.000E+00  0.000E+00  0.000E+00  1.40699E+02  '
               '1.449E+00  3.546E+00  7.063E-04  1.387E-03 -1.006E-05\n',
               '-   1    4    4     1     4    3.7257E+00  1.3761E-03   '
               '3.7244E+00  0.000E+00  0.000E+00  0.000E+00  1.40398E+02  '
               '1.448E+00  3.545E+00  7.062E-04  1.386E-03 -9.955E-06\n',
               '-   1    4    5     1     5    3.7244E+00  1.3758E-03   '
               '3.7230E+00  0.000E+00  0.000E+00  0.000E+00  1.40098E+02  '
               '1.448E+00  3.545E+00  7.061E-04  1.386E-03 -9.833E-06\n',
               '-   1    4    6     1     6    3.7230E+00  1.3754E-03   '
               '3.7216E+00  0.000E+00  0.000E+00  0.000E+00  1.39798E+02  '
               '1.448E+00  3.545E+00  7.061E-04  1.385E-03 -9.701E-06\n',
               '-   1    4    7     1     7    3.7216E+00  1.3750E-03   '
               '3.7202E+00  0.000E+00  0.000E+00  0.000E+00  1.39497E+02  '
               '1.447E+00  3.544E+00  7.060E-04  1.385E-03 -9.560E-06\n',
               '-   1    4    8     1     8    3.7202E+00  1.3747E-03   '
               '3.7189E+00  0.000E+00  0.000E+00  0.000E+00  1.39197E+02  '
               '1.447E+00  3.544E+00  7.059E-04  1.384E-03 -9.411E-06\n',
               '-   1    4    9     1     9    3.7189E+00  1.3743E-03   '
               '3.7175E+00  0.000E+00  0.000E+00  0.000E+00  1.38897E+02  '
               '1.447E+00  3.544E+00  7.058E-04  1.384E-03 -9.257E-06\n',
               '-   1    4   10     1    10    3.7175E+00  1.3739E-03   '
               '3.7161E+00  0.000E+00  0.000E+00  0.000E+00  1.38597E+02  '
               '1.447E+00  3.543E+00  7.057E-04  1.383E-03 -9.097E-06\n',
               '-   1    4   11     1    11    3.7161E+00  1.3735E-03   '
               '3.7147E+00  0.000E+00  0.000E+00  0.000E+00  1.38296E+02  '
               '1.446E+00  3.543E+00  7.056E-04  1.382E-03 -8.933E-06\n',
               '-   1    4   12     1    12    3.7147E+00  1.3732E-03   '
               '3.7134E+00  0.000E+00  0.000E+00  0.000E+00  1.37996E+02  '
               '1.446E+00  3.543E+00  7.055E-04  1.382E-03 -8.764E-06\n',
               '-   1    4   13     1    13    3.7134E+00  1.3728E-03   '
               '3.7120E+00  0.000E+00  0.000E+00  0.000E+00  1.37696E+02  '
               '1.446E+00  3.542E+00  7.054E-04  1.381E-03 -8.590E-06\n',
               '-   1    4   14     1    14    3.7120E+00  1.3724E-03   '
               '3.7106E+00  0.000E+00  0.000E+00  0.000E+00  1.37395E+02  '
               '1.445E+00  3.542E+00  7.053E-04  1.381E-03 -8.408E-06\n',
               '-   1    4   15     1    15    3.7106E+00  1.3720E-03   '
               '3.7092E+00  0.000E+00  0.000E+00  0.000E+00  1.37095E+02  '
               '1.445E+00  3.542E+00  7.052E-04  1.380E-03 -8.220E-06\n',
               '-   1    4   16     1    16    3.7092E+00  1.3717E-03   '
               '3.7079E+00  0.000E+00  0.000E+00  0.000E+00  1.36795E+02  '
               '1.445E+00  3.541E+00  7.051E-04  1.380E-03 -8.024E-06\n',
               '-   1    4   17     1    17    3.7079E+00  1.3713E-03   '
               '3.7065E+00  0.000E+00  0.000E+00  0.000E+00  1.36495E+02  '
               '1.445E+00  3.541E+00  7.051E-04  1.379E-03 -7.820E-06\n',
               '-   1    4   18     1    18    3.7065E+00  1.3709E-03   '
               '3.7051E+00  0.000E+00  0.000E+00  0.000E+00  1.36194E+02  '
               '1.444E+00  3.541E+00  7.050E-04  1.379E-03 -7.608E-06\n',
               '-   1    4   19     1    19    3.7051E+00  1.3706E-03   '
               '3.7038E+00  0.000E+00  0.000E+00  0.000E+00  1.35894E+02  '
               '1.444E+00  3.540E+00  7.049E-04  1.378E-03 -7.388E-06\n',
               '-   1    4   20     1    20    3.7038E+00  1.3702E-03   '
               '3.7024E+00  0.000E+00  0.000E+00  0.000E+00  1.35594E+02  '
               '1.444E+00  3.540E+00  7.048E-04  1.377E-03 -7.162E-06\n',
               '-   1    4   21     1    21    3.7024E+00  1.3698E-03   '
               '3.7010E+00  0.000E+00  0.000E+00  0.000E+00  1.35294E+02  '
               '1.444E+00  3.540E+00  7.047E-04  1.377E-03 -6.928E-06\n',
               '-   1    4   22     1    22    3.7010E+00  1.3694E-03   '
               '3.6996E+00  0.000E+00  0.000E+00  0.000E+00  1.34993E+02  '
               '1.443E+00  3.539E+00  7.046E-04  1.376E-03 -6.687E-06\n',
               '-   1    4   23     1    23    3.6996E+00  1.3691E-03   '
               '3.6983E+00  0.000E+00  0.000E+00  0.000E+00  1.34693E+02  '
               '1.443E+00  3.539E+00  7.045E-04  1.376E-03 -6.440E-06\n',
               '-   1    4   24     1    24    3.6983E+00  1.3687E-03   '
               '3.6969E+00  0.000E+00  0.000E+00  0.000E+00  1.34393E+02  '
               '1.443E+00  3.539E+00  7.044E-04  1.375E-03 -6.186E-06\n',
               '-   1    4   25     1    25    3.6969E+00  1.3683E-03   '
               '3.6955E+00  0.000E+00  0.000E+00  0.000E+00  1.34092E+02  '
               '1.442E+00  3.538E+00  7.043E-04  1.374E-03 -5.928E-06\n',
               '-   1    4   26     1    26    3.6955E+00  1.3680E-03   '
               '3.6942E+00  0.000E+00  0.000E+00  0.000E+00  1.33792E+02  '
               '1.442E+00  3.538E+00  7.042E-04  1.374E-03 -5.663E-06\n',
               '-   1    4   27     1    27    3.6942E+00  1.3676E-03   '
               '3.6928E+00  0.000E+00  0.000E+00  0.000E+00  1.33492E+02  '
               '1.442E+00  3.538E+00  7.042E-04  1.373E-03 -5.391E-06\n',
               '-   1    4   28     1    28    3.6928E+00  1.3672E-03   '
               '3.6914E+00  0.000E+00  0.000E+00  0.000E+00  1.33192E+02  '
               '1.442E+00  3.537E+00  7.041E-04  1.372E-03 -5.115E-06\n',
               '-   1    4   29     1    29    3.6914E+00  1.3668E-03   '
               '3.6901E+00  0.000E+00  0.000E+00  0.000E+00  1.32891E+02  '
               '1.441E+00  3.537E+00  7.040E-04  1.372E-03 -4.831E-06\n',
               '-   1    4   30     1    30    3.6901E+00  1.3665E-03   '
               '3.6887E+00  0.000E+00  0.000E+00  0.000E+00  1.32591E+02  '
               '1.441E+00  3.537E+00  7.039E-04  1.371E-03 -4.545E-06\n',
               '-   1    4   31     1    31    3.6887E+00  1.3661E-03   '
               '3.6873E+00  0.000E+00  0.000E+00  0.000E+00  1.32291E+02  '
               '1.441E+00  3.536E+00  7.038E-04  1.370E-03 -3.711E-06\n',
               '-   1    4   32     1    32    3.6873E+00  1.3657E-03   '
               '3.6860E+00  0.000E+00  0.000E+00  0.000E+00  1.31991E+02  '
               '1.441E+00  3.536E+00  7.037E-04  1.369E-03 -3.405E-06\n',
               '-   1    4   33     1    33    3.6860E+00  1.3654E-03   '
               '3.6846E+00  0.000E+00  0.000E+00  0.000E+00  1.31690E+02  '
               '1.440E+00  3.536E+00  7.036E-04  1.368E-03 -3.125E-06\n',
               '-   1    4   34     1    34    3.6846E+00  1.3650E-03   '
               '3.6832E+00  0.000E+00  0.000E+00  0.000E+00  1.31390E+02  '
               '1.440E+00  3.535E+00  7.035E-04  1.368E-03 -2.844E-06\n',
               '-   1    4   35     1    35    3.6832E+00  1.3646E-03   '
               '3.6819E+00  0.000E+00  0.000E+00  0.000E+00  1.31090E+02  '
               '1.440E+00  3.535E+00  7.034E-04  1.367E-03 -2.559E-06\n',
               '-   1    4   36     1    36    3.6819E+00  1.3643E-03   '
               '3.6805E+00  0.000E+00  0.000E+00  0.000E+00  1.30789E+02  '
               '1.439E+00  3.535E+00  7.033E-04  1.367E-03 -2.273E-06\n',
               '-   1    4   37     1    37    3.6805E+00  1.3639E-03   '
               '3.6792E+00  0.000E+00  0.000E+00  0.000E+00  1.30489E+02  '
               '1.439E+00  3.534E+00  7.032E-04  1.366E-03 -1.985E-06\n',
               '-   1    4   38     1    38    3.6792E+00  1.3635E-03   '
               '3.6778E+00  0.000E+00  0.000E+00  0.000E+00  1.30189E+02  '
               '1.439E+00  3.534E+00  7.032E-04  1.365E-03 -1.695E-06\n',
               '-   1    4   39     1    39    3.6778E+00  1.3631E-03   '
               '3.6764E+00  0.000E+00  0.000E+00  0.000E+00  1.29889E+02  '
               '1.439E+00  3.534E+00  7.031E-04  1.365E-03 -1.405E-06\n',
               '-   1    4   40     1    40    3.6764E+00  1.3628E-03   '
               '3.6751E+00  0.000E+00  0.000E+00  0.000E+00  1.29588E+02  '
               '1.438E+00  3.533E+00  7.030E-04  1.364E-03 -1.115E-06\n',
               '-   1    4   41     1    41    3.6751E+00  1.3624E-03   '
               '3.6737E+00  0.000E+00  0.000E+00  0.000E+00  1.29288E+02  '
               '1.438E+00  3.533E+00  7.029E-04  1.363E-03 -8.246E-07\n',
               '-   1    4   42     1    42    3.6737E+00  1.3620E-03   '
               '3.6723E+00  0.000E+00  0.000E+00  0.000E+00  1.28988E+02  '
               '1.438E+00  3.533E+00  7.028E-04  1.363E-03 -5.358E-07\n',
               '-   1    4   43     1    43    3.6723E+00  1.3617E-03   '
               '3.6710E+00  0.000E+00  0.000E+00  0.000E+00  1.28687E+02  '
               '1.437E+00  3.532E+00  7.027E-04  1.362E-03 -2.483E-07\n',
               '-   1    4   44     1    44    3.6710E+00  1.3613E-03   '
               '3.6696E+00  0.000E+00  0.000E+00  0.000E+00  1.28387E+02  '
               '1.437E+00  3.532E+00  7.026E-04  1.361E-03  3.702E-08\n',
               '-   1    4   45     1    45    3.6696E+00  1.3609E-03   '
               '3.6683E+00  0.000E+00  0.000E+00  0.000E+00  1.28087E+02  '
               '1.437E+00  3.532E+00  7.025E-04  1.361E-03  3.199E-07\n',
               '-   1    4   46     1    46    3.6683E+00  1.3606E-03   '
               '3.6669E+00  0.000E+00  0.000E+00  0.000E+00  1.27787E+02  '
               '1.437E+00  3.531E+00  7.024E-04  1.360E-03  6.003E-07\n',
               '-   1    4   47     1    47    3.6669E+00  1.3602E-03   '
               '3.6655E+00  0.000E+00  0.000E+00  0.000E+00  1.27486E+02  '
               '1.436E+00  3.531E+00  7.023E-04  1.359E-03  1.456E-06\n',
               '-   1    4   48     1    48    3.6655E+00  1.3598E-03   '
               '3.6642E+00  0.000E+00  0.000E+00  0.000E+00  1.27186E+02  '
               '1.436E+00  3.531E+00  7.023E-04  1.358E-03  1.896E-06\n',
               '-   1    4   49     1    49    3.6642E+00  1.3595E-03   '
               '3.6628E+00  0.000E+00  0.000E+00  0.000E+00  1.26886E+02  '
               '1.436E+00  3.530E+00  7.022E-04  1.357E-03  2.141E-06\n',
               '-   1    4   50     1    50    3.6628E+00  1.3591E-03   '
               '3.6615E+00  0.000E+00  0.000E+00  0.000E+00  1.26586E+02  '
               '1.436E+00  3.530E+00  7.021E-04  1.357E-03  2.381E-06\n',
               '-   1    4   51     1    51    3.6615E+00  1.3587E-03   '
               '3.6601E+00  0.000E+00  0.000E+00  0.000E+00  1.26285E+02  '
               '1.435E+00  3.530E+00  7.020E-04  1.356E-03  2.615E-06\n',
               '-   1    4   52     1    52    3.6601E+00  1.3583E-03   '
               '3.6587E+00  0.000E+00  0.000E+00  0.000E+00  1.25985E+02  '
               '1.435E+00  3.529E+00  7.019E-04  1.356E-03  2.844E-06\n',
               '-   1    4   53     1    53    3.6587E+00  1.3580E-03   '
               '3.6574E+00  0.000E+00  0.000E+00  0.000E+00  1.25685E+02  '
               '1.435E+00  3.529E+00  7.018E-04  1.355E-03  3.067E-06\n',
               '-   1    4   54     1    54    3.6574E+00  1.3576E-03   '
               '3.6560E+00  0.000E+00  0.000E+00  0.000E+00  1.25384E+02  '
               '1.434E+00  3.529E+00  7.017E-04  1.354E-03  3.282E-06\n',
               '-   1    4   55     1    55    3.6560E+00  1.3572E-03   '
               '3.6547E+00  0.000E+00  0.000E+00  0.000E+00  1.25084E+02  '
               '1.434E+00  3.528E+00  7.016E-04  1.354E-03  3.492E-06\n',
               '-   1    4   56     1    56    3.6547E+00  1.3569E-03   '
               '3.6533E+00  0.000E+00  0.000E+00  0.000E+00  1.24784E+02  '
               '1.434E+00  3.528E+00  7.015E-04  1.353E-03  3.692E-06\n',
               '-   1    4   57     1    57    3.6533E+00  1.3565E-03   '
               '3.6520E+00  0.000E+00  0.000E+00  0.000E+00  1.24484E+02  '
               '1.434E+00  3.528E+00  7.014E-04  1.353E-03  3.885E-06\n',
               '-   1    4   58     1    58    3.6520E+00  1.3561E-03   '
               '3.6506E+00  0.000E+00  0.000E+00  0.000E+00  1.24183E+02  '
               '1.433E+00  3.527E+00  7.014E-04  1.352E-03  4.070E-06\n',
               '-   1    4   59     1    59    3.6506E+00  1.3558E-03   '
               '3.6492E+00  0.000E+00  0.000E+00  0.000E+00  1.23883E+02  '
               '1.433E+00  3.527E+00  7.013E-04  1.353E-03  3.207E-06\n',
               '-   1    4   60     1    60    3.6492E+00  1.3554E-03   '
               '3.6479E+00  0.000E+00  0.000E+00  0.000E+00  1.23583E+02  '
               '1.433E+00  3.527E+00  7.012E-04  1.352E-03  3.177E-06\n',
               '-   1    4   61     1    61    3.6479E+00  1.3550E-03   '
               '3.6465E+00  0.000E+00  0.000E+00  0.000E+00  1.23282E+02  '
               '1.432E+00  3.526E+00  7.011E-04  1.352E-03  3.348E-06\n',
               '-   1    4   62     1    62    3.6465E+00  1.3547E-03   '
               '3.6452E+00  0.000E+00  0.000E+00  0.000E+00  1.22982E+02  '
               '1.432E+00  3.526E+00  7.010E-04  1.351E-03  3.508E-06\n',
               '-   1    4   63     1    63    3.6452E+00  1.3543E-03   '
               '3.6438E+00  0.000E+00  0.000E+00  0.000E+00  1.22682E+02  '
               '1.432E+00  3.526E+00  7.009E-04  1.351E-03  3.655E-06\n',
               '-   1    4   64     1    64    3.6438E+00  1.3539E-03   '
               '3.6425E+00  0.000E+00  0.000E+00  0.000E+00  1.22382E+02  '
               '1.432E+00  3.525E+00  7.008E-04  1.350E-03  3.790E-06\n',
               '-   1    4   65     1    65    3.6425E+00  1.3536E-03   '
               '3.6411E+00  0.000E+00  0.000E+00  0.000E+00  1.22081E+02  '
               '1.431E+00  3.525E+00  7.007E-04  1.350E-03  3.910E-06\n',
               '-   1    4   66     1    66    3.6411E+00  1.3532E-03   '
               '3.6398E+00  0.000E+00  0.000E+00  0.000E+00  1.21781E+02  '
               '1.431E+00  3.525E+00  7.006E-04  1.349E-03  4.017E-06\n',
               '-   1    4   67     1    67    3.6398E+00  1.3528E-03   '
               '3.6384E+00  0.000E+00  0.000E+00  0.000E+00  1.21481E+02  '
               '1.431E+00  3.524E+00  7.005E-04  1.349E-03  4.107E-06\n',
               '-   1    4   68     1    68    3.6384E+00  1.3525E-03   '
               '3.6371E+00  0.000E+00  0.000E+00  0.000E+00  1.21181E+02  '
               '1.431E+00  3.524E+00  7.004E-04  1.349E-03  3.951E-06\n',
               '-   1    4   69     1    69    3.6371E+00  1.3521E-03   '
               '3.6357E+00  0.000E+00  0.000E+00  0.000E+00  1.20880E+02  '
               '1.430E+00  3.524E+00  7.004E-04  1.349E-03  3.043E-06\n',
               '-   1    4   70     1    70    3.6357E+00  1.3517E-03   '
               '3.6344E+00  0.000E+00  0.000E+00  0.000E+00  1.20580E+02  '
               '1.430E+00  3.523E+00  7.003E-04  1.349E-03  3.101E-06\n',
               '-   1    4   71     1    71    3.6344E+00  1.3514E-03   '
               '3.6330E+00  0.000E+00  0.000E+00  0.000E+00  1.20280E+02  '
               '1.430E+00  3.523E+00  7.002E-04  1.348E-03  3.138E-06\n',
               '-   1    4   72     1    72    3.6330E+00  1.3510E-03   '
               '3.6316E+00  0.000E+00  0.000E+00  0.000E+00  1.19979E+02  '
               '1.429E+00  3.523E+00  7.001E-04  1.348E-03  3.154E-06\n',
               '-   1    4   73     1    73    3.6316E+00  1.3506E-03   '
               '3.6303E+00  0.000E+00  0.000E+00  0.000E+00  1.19679E+02  '
               '1.429E+00  3.522E+00  7.000E-04  1.347E-03  3.148E-06\n',
               '-   1    4   74     1    74    3.6303E+00  1.3503E-03   '
               '3.6289E+00  0.000E+00  0.000E+00  0.000E+00  1.19379E+02  '
               '1.429E+00  3.522E+00  6.999E-04  1.347E-03  3.120E-06\n',
               '-   1    4   75     1    75    3.6289E+00  1.3499E-03   '
               '3.6276E+00  0.000E+00  0.000E+00  0.000E+00  1.19079E+02  '
               '1.429E+00  3.522E+00  6.998E-04  1.348E-03  1.448E-06\n',
               '-   1    4   76     1    76    3.6276E+00  1.3495E-03   '
               '3.6262E+00  0.000E+00  0.000E+00  0.000E+00  1.18778E+02  '
               '1.428E+00  3.521E+00  6.997E-04  1.348E-03  1.370E-06\n',
               '-   1    4   77     1    77    3.6262E+00  1.3492E-03   '
               '3.6249E+00  0.000E+00  0.000E+00  0.000E+00  1.18478E+02  '
               '1.428E+00  3.521E+00  6.996E-04  1.351E-03 -1.882E-06\n',
               '-   1    4   78     1    78    3.6249E+00  1.3488E-03   '
               '3.6236E+00  0.000E+00  0.000E+00  0.000E+00  1.18178E+02  '
               '1.428E+00  3.521E+00  6.995E-04  1.351E-03 -2.232E-06\n',
               '-   1    4   79     1    79    3.6236E+00  1.3484E-03   '
               '3.6222E+00  0.000E+00  0.000E+00  0.000E+00  1.17878E+02  '
               '1.428E+00  3.520E+00  6.995E-04  1.351E-03 -2.890E-06\n',
               '-   1    4   80     1    80    3.6222E+00  1.3481E-03   '
               '3.6209E+00  0.000E+00  0.000E+00  0.000E+00  1.17577E+02  '
               '1.427E+00  3.520E+00  6.994E-04  1.352E-03 -3.730E-06\n',
               '-   1    4   81     1    81    3.6209E+00  1.3477E-03   '
               '3.6195E+00  0.000E+00  0.000E+00  0.000E+00  1.17277E+02  '
               '1.427E+00  3.520E+00  6.993E-04  1.352E-03 -3.965E-06\n',
               '-   1    4   82     1    82    3.6195E+00  1.3473E-03   '
               '3.6182E+00  0.000E+00  0.000E+00  0.000E+00  1.16977E+02  '
               '1.427E+00  3.519E+00  6.992E-04  1.352E-03 -4.242E-06\n',
               '-   1    4   83     1    83    3.6182E+00  1.3470E-03   '
               '3.6168E+00  0.000E+00  0.000E+00  0.000E+00  1.16676E+02  '
               '1.426E+00  3.519E+00  6.991E-04  1.353E-03 -5.606E-06\n',
               '-   1    4   84     1    84    3.6168E+00  1.3466E-03   '
               '3.6155E+00  0.000E+00  0.000E+00  0.000E+00  1.16376E+02  '
               '1.426E+00  3.519E+00  6.990E-04  1.351E-03 -4.230E-06\n',
               '-   1    4   85     1    85    3.6155E+00  1.3462E-03   '
               '3.6141E+00  0.000E+00  0.000E+00  0.000E+00  1.16076E+02  '
               '1.426E+00  3.518E+00  6.989E-04  1.351E-03 -5.046E-06\n',
               '-   1    4   86     1    86    3.6141E+00  1.3459E-03   '
               '3.6128E+00  0.000E+00  0.000E+00  0.000E+00  1.15776E+02  '
               '1.426E+00  3.518E+00  6.988E-04  1.352E-03 -5.678E-06\n',
               '-   1    4   87     1    87    3.6128E+00  1.3455E-03   '
               '3.6114E+00  0.000E+00  0.000E+00  0.000E+00  1.15475E+02  '
               '1.425E+00  3.518E+00  6.987E-04  1.357E-03 -1.155E-05\n',
               '-   1    4   88     1    88    3.6114E+00  1.3451E-03   '
               '3.6101E+00  0.000E+00  0.000E+00  0.000E+00  1.15175E+02  '
               '1.425E+00  3.517E+00  6.986E-04  1.360E-03 -1.443E-05\n',
               '-   1    4   89     1    89    3.6101E+00  1.3448E-03   '
               '3.6087E+00  0.000E+00  0.000E+00  0.000E+00  1.14875E+02  '
               '1.425E+00  3.517E+00  6.986E-04  1.360E-03 -1.528E-05\n',
               '-   1    4   90     1    90    3.6087E+00  1.3444E-03   '
               '3.6074E+00  0.000E+00  0.000E+00  0.000E+00  1.14574E+02  '
               '1.424E+00  3.517E+00  6.985E-04  1.361E-03 -1.618E-05\n',
               '-   1    4   91     1    91    3.6074E+00  1.3440E-03   '
               '3.6060E+00  0.000E+00  0.000E+00  0.000E+00  1.14274E+02  '
               '1.424E+00  3.516E+00  6.984E-04  1.361E-03 -1.712E-05\n',
               '-   1    4   92     1    92    3.6060E+00  1.3437E-03   '
               '3.6047E+00  0.000E+00  0.000E+00  0.000E+00  1.13974E+02  '
               '1.424E+00  3.516E+00  6.983E-04  1.362E-03 -1.809E-05\n',
               '-   1    4   93     1    93    3.6047E+00  1.3433E-03   '
               '3.6034E+00  0.000E+00  0.000E+00  0.000E+00  1.13674E+02  '
               '1.424E+00  3.516E+00  6.982E-04  1.362E-03 -1.906E-05\n',
               '-   1    4   94     1    94    3.6034E+00  1.3429E-03   '
               '3.6020E+00  0.000E+00  0.000E+00  0.000E+00  1.13373E+02  '
               '1.423E+00  3.515E+00  6.981E-04  1.363E-03 -1.999E-05\n',
               '-   1    4   95     1    95    3.6020E+00  1.3426E-03   '
               '3.6007E+00  0.000E+00  0.000E+00  0.000E+00  1.13073E+02  '
               '1.423E+00  3.515E+00  6.980E-04  1.363E-03 -2.080E-05\n',
               '-   1    4   96     1    96    3.6007E+00  1.3422E-03   '
               '3.5993E+00  0.000E+00  0.000E+00  0.000E+00  1.12773E+02  '
               '1.423E+00  3.515E+00  6.979E-04  1.364E-03 -2.139E-05\n',
               '-   1    4   97     1    97    3.5993E+00  1.3418E-03   '
               '3.5980E+00  0.000E+00  0.000E+00  0.000E+00  1.12473E+02  '
               '1.423E+00  3.514E+00  6.978E-04  1.363E-03 -2.158E-05\n',
               '-   1    4   98     1    98    3.5980E+00  1.3415E-03   '
               '3.5967E+00  0.000E+00  0.000E+00  0.000E+00  1.12172E+02  '
               '1.422E+00  3.514E+00  6.977E-04  1.363E-03 -2.120E-05\n',
               '-   1    4   99     1    99    3.5967E+00  1.3411E-03   '
               '3.5953E+00  0.000E+00  0.000E+00  0.000E+00  1.11872E+02  '
               '1.422E+00  3.514E+00  6.977E-04  1.361E-03 -2.012E-05\n',
               '-   1    4  100     1   100    3.5953E+00  1.3407E-03   '
               '3.5940E+00  0.000E+00  0.000E+00  0.000E+00  1.11572E+02  '
               '1.422E+00  3.513E+00  6.976E-04  1.364E-03 -2.347E-05\n',
               '-\n',
               '-\n',
               '-\n',
               '-1\n',
               '-  VOLUMETRIC BUDGET FOR UNSATURATED ZONE BENEATH STREAMS AT '
               'END OF TIME STEP    30 STRESS PERIOD  38\n',
               '-  '
               '------------------------------------------------------------------------------------------------\n',
               '-\n',
               '-    CUMULATIVE VOLUMES             L**3    RATES FOR THIS '
               'TIME STEP         L**3/T\n',
               '-    ------------------                     '
               '------------------------\n',
               '-\n',
               '-\n',
               '-          STREAM LOSS =     30641186.0000            STREAM '
               'LOSS =            0.1359\n',
               '-    CHANGE IN STORAGE =       378807.6562      CHANGE IN '
               'STORAGE =       -4.6741E-04\n',
               '-       RECHARGE TO GW =     30266434.0000         RECHARGE TO '
               'GW =            0.1364\n',
               '-\n',
               '-             TOTAL IN =     30641186.0000               TOTAL '
               'IN =            0.1364\n',
               '-\n',
               '-            TOTAL OUT =     30645242.0000              TOTAL '
               'OUT =            0.1364\n',
               '-\n',
               '-             IN - OUT =        -4056.0000               IN - '
               'OUT =       -1.4901E-08\n',
               '-\n',
               '-  PERCENT DISCREPANCY =           -0.00      PERCENT '
               'DISCREPANCY =            -0.00\n',
               '-\n',
               '-\n',
               '-\n',
               '-1\n',
               '-  VOLUMETRIC BUDGET FOR ENTIRE MODEL AT END OF TIME STEP   '
               '30, STRESS PERIOD  38\n',
               '-  '
               '------------------------------------------------------------------------------\n',
               '-\n',
               '-     CUMULATIVE VOLUMES      L**3       RATES FOR THIS TIME '
               'STEP      L**3/T\n',
               '-     ------------------                 '
               '------------------------\n',
               '-\n',
               '-           IN:                                      IN:\n',
               '-           ---                                      ---\n',
               '-             STORAGE =    16144942.0000               STORAGE '
               '=       6.0899E-02\n',
               '-       CONSTANT HEAD =           0.0000         CONSTANT HEAD '
               '=           0.0000\n',
               '-     HEAD DEP BOUNDS =           0.0000       HEAD DEP BOUNDS '
               '=           0.0000\n',
               '-      STREAM LEAKAGE =    30266304.0000        STREAM LEAKAGE '
               '=           0.1364\n',
               '-\n',
               '-            TOTAL IN =    46411248.0000              TOTAL IN '
               '=           0.1973\n',
               '-\n',
               '-          OUT:                                     OUT:\n',
               '-          ----                                     ----\n',
               '-             STORAGE =    15956596.0000               STORAGE '
               '=       2.6775E-03\n',
               '-       CONSTANT HEAD =           0.0000         CONSTANT HEAD '
               '=           0.0000\n',
               '-     HEAD DEP BOUNDS =    30454408.0000       HEAD DEP BOUNDS '
               '=           0.1945\n',
               '-      STREAM LEAKAGE =           0.0000        STREAM LEAKAGE '
               '=           0.0000\n',
               '-\n',
               '-           TOTAL OUT =    46411004.0000             TOTAL OUT '
               '=           0.1971\n',
               '-\n',
               '-            IN - OUT =         244.0000              IN - OUT '
               '=       1.2118E-04\n',
               '-\n',
               '- PERCENT DISCREPANCY =           0.00     PERCENT DISCREPANCY '
               '=           0.06\n',
               '-\n',
               '-\n',
               '-\n',
               '-\n',
               '-\n',
               '-\n',
               '-         TIME SUMMARY AT END OF TIME STEP   30 IN STRESS '
               'PERIOD   38\n',
               '-                    SECONDS     MINUTES      HOURS       '
               'DAYS        YEARS\n',
               '-                    '
               '-----------------------------------------------------------\n',
               '-   TIME STEP LENGTH 2.49961E+05  4166.0      69.434      '
               '2.8931     7.92080E-03\n',
               '- STRESS PERIOD TIME 2.59200E+06  43200.      720.00      '
               '30.000     8.21355E-02\n',
               '-         TOTAL TIME 9.84960E+07 1.64160E+06  27360.      '
               '1140.0      3.1212    \n',
               '-1\n',
               '-1\n',
               '-                            STRESS PERIOD NO.   39, LENGTH '
               '=   2592000.    \n',
               '-                            '
               '-----------------------------------------------\n',
               '-\n',
               '-                              NUMBER OF TIME STEPS =    30\n',
               '-\n',
               '-                               MULTIPLIER FOR DELT =     '
               '1.100\n',
               '-\n',
               '-                            INITIAL TIME STEP SIZE =   '
               '15757.40    \n',
               '-\n',
               '- REUSING NON-PARAMETER GHB CELLS FROM LAST STRESS PERIOD\n',
               '-\n',
               '-      7 GHB CELLS\n',
               '- \n',
               '- SOLVING FOR HEAD \n',
               '-\n',
               '- NO OUTPUT CONTROL FOR STRESS PERIOD   39   TIME STEP    1\n',
               '- \n',
               '- SOLVING FOR HEAD \n',
               '-\n',
               '- NO OUTPUT CONTROL FOR STRESS PERIOD   39   TIME STEP    2\n',
               '- \n',
               '- SOLVING FOR HEAD \n',
               '-\n',
               '- NO OUTPUT CONTROL FOR STRESS PERIOD   39   TIME STEP    3\n',
               '- \n',
               '- SOLVING FOR HEAD \n',
               '-\n',
               '- NO OUTPUT CONTROL FOR STRESS PERIOD   39   TIME STEP    4\n',
               '- \n',
               '- SOLVING FOR HEAD \n',
               '-\n',
               '- NO OUTPUT CONTROL FOR STRESS PERIOD   39   TIME STEP    5\n',
               '- \n',
               '- SOLVING FOR HEAD \n',
               '-\n',
               '- NO OUTPUT CONTROL FOR STRESS PERIOD   39   TIME STEP    6\n',
               '- \n',
               '- SOLVING FOR HEAD \n',
               '-\n',
               '- NO OUTPUT CONTROL FOR STRESS PERIOD   39   TIME STEP    7\n',
               '- \n',
               '- SOLVING FOR HEAD \n',
               '-\n',
               '- NO OUTPUT CONTROL FOR STRESS PERIOD   39   TIME STEP    8\n',
               '- \n',
               '- SOLVING FOR HEAD \n',
               '-\n',
               '- NO OUTPUT CONTROL FOR STRESS PERIOD   39   TIME STEP    9\n',
               '- \n',
               '- SOLVING FOR HEAD \n',
               '-\n',
               '- NO OUTPUT CONTROL FOR STRESS PERIOD   39   TIME STEP   10\n',
               '- \n',
               '- SOLVING FOR HEAD \n',
               '-\n',
               '- NO OUTPUT CONTROL FOR STRESS PERIOD   39   TIME STEP   11\n',
               '- \n',
               '- SOLVING FOR HEAD \n',
               '-\n',
               '- NO OUTPUT CONTROL FOR STRESS PERIOD   39   TIME STEP   12\n',
               '- \n',
               '- SOLVING FOR HEAD \n',
               '-\n',
               '- NO OUTPUT CONTROL FOR STRESS PERIOD   39   TIME STEP   13\n',
               '- \n',
               '- SOLVING FOR HEAD \n',
               '-\n',
               '- NO OUTPUT CONTROL FOR STRESS PERIOD   39   TIME STEP   14\n',
               '- \n',
               '- SOLVING FOR HEAD \n',
               '-\n',
               '- NO OUTPUT CONTROL FOR STRESS PERIOD   39   TIME STEP   15\n',
               '- \n',
               '- SOLVING FOR HEAD \n',
               '-\n',
               '- NO OUTPUT CONTROL FOR STRESS PERIOD   39   TIME STEP   16\n',
               '- \n',
               '- SOLVING FOR HEAD \n',
               '-\n',
               '- NO OUTPUT CONTROL FOR STRESS PERIOD   39   TIME STEP   17\n',
               '- \n',
               '- SOLVING FOR HEAD \n',
               '-\n',
               '- NO OUTPUT CONTROL FOR STRESS PERIOD   39   TIME STEP   18\n',
               '- \n',
               '- SOLVING FOR HEAD \n',
               '-\n',
               '- NO OUTPUT CONTROL FOR STRESS PERIOD   39   TIME STEP   19\n',
               '- \n',
               '- SOLVING FOR HEAD \n',
               '-\n',
               '- NO OUTPUT CONTROL FOR STRESS PERIOD   39   TIME STEP   20\n',
               '- \n',
               '- SOLVING FOR HEAD \n',
               '-\n',
               '- NO OUTPUT CONTROL FOR STRESS PERIOD   39   TIME STEP   21\n',
               '- \n',
               '- SOLVING FOR HEAD \n',
               '-\n',
               '- NO OUTPUT CONTROL FOR STRESS PERIOD   39   TIME STEP   22\n',
               '- \n',
               '- SOLVING FOR HEAD \n',
               '-\n',
               '- NO OUTPUT CONTROL FOR STRESS PERIOD   39   TIME STEP   23\n',
               '- \n',
               '- SOLVING FOR HEAD \n',
               '-\n',
               '- NO OUTPUT CONTROL FOR STRESS PERIOD   39   TIME STEP   24\n',
               '- \n',
               '- SOLVING FOR HEAD \n',
               '-\n',
               '- NO OUTPUT CONTROL FOR STRESS PERIOD   39   TIME STEP   25\n',
               '- \n',
               '- SOLVING FOR HEAD \n',
               '-\n',
               '- NO OUTPUT CONTROL FOR STRESS PERIOD   39   TIME STEP   26\n',
               '- \n',
               '- SOLVING FOR HEAD \n',
               '-\n',
               '- NO OUTPUT CONTROL FOR STRESS PERIOD   39   TIME STEP   27\n',
               '- \n',
               '- SOLVING FOR HEAD \n',
               '-\n',
               '- NO OUTPUT CONTROL FOR STRESS PERIOD   39   TIME STEP   28\n',
               '- \n',
               '- SOLVING FOR HEAD \n',
               '-\n',
               '- NO OUTPUT CONTROL FOR STRESS PERIOD   39   TIME STEP   29\n',
               '- \n',
               '- SOLVING FOR HEAD \n',
               '-\n',
               '- NO OUTPUT CONTROL FOR STRESS PERIOD   39   TIME STEP   30\n',
               '-\n',
               '-\n',
               '-\n',
               '- STREAM LISTING     PERIOD     39   STEP       30\n',
               '-\n',
               '- LAYER ROW COL. STREAM  RCH.   FLOW INTO    STREAM     FLOW '
               'OUT OF   OVRLND.    DIRECT     STREAM      STREAM      '
               'STREAM     STREAM  STREAMBED   FLOW TO   CHNG. UNSAT. \n',
               '-                SEG.NO.  NO.   STRM. RCH.    LOSS       STRM. '
               'RCH.   RUNOFF     PRECIP       ET         HEAD        '
               'DEPTH      WIDTH  CONDCTNC.   WAT. TAB.\n',
               '-\n',
               '-   1    4    1     1     1    2.9999E+00  1.1771E-03   '
               '2.9987E+00  0.000E+00  0.000E+00  0.000E+00  1.41144E+02  '
               '1.294E+00  3.361E+00  6.559E-04  1.183E-03 -6.421E-06\n',
               '-   1    4    2     1     2    2.9987E+00  1.1767E-03   '
               '2.9975E+00  0.000E+00  0.000E+00  0.000E+00  1.40844E+02  '
               '1.294E+00  3.361E+00  6.559E-04  1.183E-03 -6.131E-06\n',
               '-   1    4    3     1     3    2.9975E+00  1.1764E-03   '
               '2.9963E+00  0.000E+00  0.000E+00  0.000E+00  1.40544E+02  '
               '1.294E+00  3.360E+00  6.558E-04  1.182E-03 -6.073E-06\n',
               '-   1    4    4     1     4    2.9963E+00  1.1761E-03   '
               '2.9952E+00  0.000E+00  0.000E+00  0.000E+00  1.40243E+02  '
               '1.293E+00  3.360E+00  6.557E-04  1.182E-03 -6.005E-06\n',
               '-   1    4    5     1     5    2.9952E+00  1.1757E-03   '
               '2.9940E+00  0.000E+00  0.000E+00  0.000E+00  1.39943E+02  '
               '1.293E+00  3.360E+00  6.556E-04  1.182E-03 -5.927E-06\n',
               '-   1    4    6     1     6    2.9940E+00  1.1754E-03   '
               '2.9928E+00  0.000E+00  0.000E+00  0.000E+00  1.39643E+02  '
               '1.293E+00  3.359E+00  6.555E-04  1.181E-03 -5.838E-06\n',
               '-   1    4    7     1     7    2.9928E+00  1.1751E-03   '
               '2.9916E+00  0.000E+00  0.000E+00  0.000E+00  1.39343E+02  '
               '1.293E+00  3.359E+00  6.554E-04  1.181E-03 -5.741E-06\n',
               '-   1    4    8     1     8    2.9916E+00  1.1748E-03   '
               '2.9905E+00  0.000E+00  0.000E+00  0.000E+00  1.39042E+02  '
               '1.292E+00  3.359E+00  6.553E-04  1.180E-03 -5.633E-06\n',
               '-   1    4    9     1     9    2.9905E+00  1.1744E-03   '
               '2.9893E+00  0.000E+00  0.000E+00  0.000E+00  1.38742E+02  '
               '1.292E+00  3.358E+00  6.553E-04  1.180E-03 -5.517E-06\n',
               '-   1    4   10     1    10    2.9893E+00  1.1741E-03   '
               '2.9881E+00  0.000E+00  0.000E+00  0.000E+00  1.38442E+02  '
               '1.292E+00  3.358E+00  6.552E-04  1.180E-03 -5.392E-06\n',
               '-   1    4   11     1    11    2.9881E+00  1.1738E-03   '
               '2.9870E+00  0.000E+00  0.000E+00  0.000E+00  1.38142E+02  '
               '1.292E+00  3.358E+00  6.551E-04  1.179E-03 -5.261E-06\n',
               '-   1    4   12     1    12    2.9870E+00  1.1735E-03   '
               '2.9858E+00  0.000E+00  0.000E+00  0.000E+00  1.37841E+02  '
               '1.291E+00  3.357E+00  6.550E-04  1.179E-03 -5.120E-06\n',
               '-   1    4   13     1    13    2.9858E+00  1.1731E-03   '
               '2.9846E+00  0.000E+00  0.000E+00  0.000E+00  1.37541E+02  '
               '1.291E+00  3.357E+00  6.549E-04  1.178E-03 -4.971E-06\n',
               '-   1    4   14     1    14    2.9846E+00  1.1728E-03   '
               '2.9834E+00  0.000E+00  0.000E+00  0.000E+00  1.37241E+02  '
               '1.291E+00  3.357E+00  6.548E-04  1.178E-03 -4.815E-06\n',
               '-   1    4   15     1    15    2.9834E+00  1.1725E-03   '
               '2.9823E+00  0.000E+00  0.000E+00  0.000E+00  1.36940E+02  '
               '1.290E+00  3.356E+00  6.547E-04  1.177E-03 -4.652E-06\n',
               '-   1    4   16     1    16    2.9823E+00  1.1722E-03   '
               '2.9811E+00  0.000E+00  0.000E+00  0.000E+00  1.36640E+02  '
               '1.290E+00  3.356E+00  6.547E-04  1.177E-03 -4.481E-06\n',
               '-   1    4   17     1    17    2.9811E+00  1.1718E-03   '
               '2.9799E+00  0.000E+00  0.000E+00  0.000E+00  1.36340E+02  '
               '1.290E+00  3.356E+00  6.546E-04  1.176E-03 -4.304E-06\n',
               '-   1    4   18     1    18    2.9799E+00  1.1715E-03   '
               '2.9787E+00  0.000E+00  0.000E+00  0.000E+00  1.36040E+02  '
               '1.290E+00  3.356E+00  6.545E-04  1.176E-03 -4.119E-06\n',
               '-   1    4   19     1    19    2.9787E+00  1.1712E-03   '
               '2.9776E+00  0.000E+00  0.000E+00  0.000E+00  1.35739E+02  '
               '1.289E+00  3.355E+00  6.544E-04  1.175E-03 -3.928E-06\n',
               '-   1    4   20     1    20    2.9776E+00  1.1708E-03   '
               '2.9764E+00  0.000E+00  0.000E+00  0.000E+00  1.35439E+02  '
               '1.289E+00  3.355E+00  6.543E-04  1.175E-03 -3.731E-06\n',
               '-   1    4   21     1    21    2.9764E+00  1.1705E-03   '
               '2.9752E+00  0.000E+00  0.000E+00  0.000E+00  1.35139E+02  '
               '1.289E+00  3.355E+00  6.542E-04  1.174E-03 -3.528E-06\n',
               '-   1    4   22     1    22    2.9752E+00  1.1702E-03   '
               '2.9741E+00  0.000E+00  0.000E+00  0.000E+00  1.34839E+02  '
               '1.289E+00  3.354E+00  6.541E-04  1.174E-03 -3.320E-06\n',
               '-   1    4   23     1    23    2.9741E+00  1.1699E-03   '
               '2.9729E+00  0.000E+00  0.000E+00  0.000E+00  1.34538E+02  '
               '1.288E+00  3.354E+00  6.541E-04  1.173E-03 -3.104E-06\n',
               '-   1    4   24     1    24    2.9729E+00  1.1695E-03   '
               '2.9717E+00  0.000E+00  0.000E+00  0.000E+00  1.34238E+02  '
               '1.288E+00  3.354E+00  6.540E-04  1.172E-03 -2.885E-06\n',
               '-   1    4   25     1    25    2.9717E+00  1.1692E-03   '
               '2.9706E+00  0.000E+00  0.000E+00  0.000E+00  1.33938E+02  '
               '1.288E+00  3.353E+00  6.539E-04  1.172E-03 -2.660E-06\n',
               '-   1    4   26     1    26    2.9706E+00  1.1689E-03   '
               '2.9694E+00  0.000E+00  0.000E+00  0.000E+00  1.33638E+02  '
               '1.288E+00  3.353E+00  6.538E-04  1.171E-03 -2.430E-06\n',
               '-   1    4   27     1    27    2.9694E+00  1.1686E-03   '
               '2.9682E+00  0.000E+00  0.000E+00  0.000E+00  1.33337E+02  '
               '1.287E+00  3.353E+00  6.537E-04  1.171E-03 -2.196E-06\n',
               '-   1    4   28     1    28    2.9682E+00  1.1682E-03   '
               '2.9670E+00  0.000E+00  0.000E+00  0.000E+00  1.33037E+02  '
               '1.287E+00  3.352E+00  6.536E-04  1.170E-03 -1.956E-06\n',
               '-   1    4   29     1    29    2.9670E+00  1.1679E-03   '
               '2.9659E+00  0.000E+00  0.000E+00  0.000E+00  1.32737E+02  '
               '1.287E+00  3.352E+00  6.535E-04  1.170E-03 -1.712E-06\n',
               '-   1    4   30     1    30    2.9659E+00  1.1676E-03   '
               '2.9647E+00  0.000E+00  0.000E+00  0.000E+00  1.32437E+02  '
               '1.287E+00  3.352E+00  6.535E-04  1.169E-03 -1.463E-06\n',
               '-   1    4   31     1    31    2.9647E+00  1.1673E-03   '
               '2.9635E+00  0.000E+00  0.000E+00  0.000E+00  1.32136E+02  '
               '1.286E+00  3.351E+00  6.534E-04  1.168E-03 -1.211E-06\n',
               '-   1    4   32     1    32    2.9635E+00  1.1669E-03   '
               '2.9624E+00  0.000E+00  0.000E+00  0.000E+00  1.31836E+02  '
               '1.286E+00  3.351E+00  6.533E-04  1.168E-03 -9.562E-07\n',
               '-   1    4   33     1    33    2.9624E+00  1.1666E-03   '
               '2.9612E+00  0.000E+00  0.000E+00  0.000E+00  1.31536E+02  '
               '1.286E+00  3.351E+00  6.532E-04  1.167E-03 -6.997E-07\n',
               '-   1    4   34     1    34    2.9612E+00  1.1663E-03   '
               '2.9600E+00  0.000E+00  0.000E+00  0.000E+00  1.31235E+02  '
               '1.285E+00  3.351E+00  6.531E-04  1.167E-03 -4.409E-07\n',
               '-   1    4   35     1    35    2.9600E+00  1.1660E-03   '
               '2.9589E+00  0.000E+00  0.000E+00  0.000E+00  1.30935E+02  '
               '1.285E+00  3.350E+00  6.530E-04  1.166E-03 -7.303E-08\n',
               '-   1    4   36     1    36    2.9589E+00  1.1656E-03   '
               '2.9577E+00  0.000E+00  0.000E+00  0.000E+00  1.30635E+02  '
               '1.285E+00  3.350E+00  6.529E-04  1.165E-03  4.403E-07\n',
               '-   1    4   37     1    37    2.9577E+00  1.1653E-03   '
               '2.9565E+00  0.000E+00  0.000E+00  0.000E+00  1.30335E+02  '
               '1.285E+00  3.350E+00  6.529E-04  1.165E-03  6.884E-07\n',
               '-   1    4   38     1    38    2.9565E+00  1.1650E-03   '
               '2.9554E+00  0.000E+00  0.000E+00  0.000E+00  1.30034E+02  '
               '1.284E+00  3.349E+00  6.528E-04  1.164E-03  9.366E-07\n',
               '-   1    4   39     1    39    2.9554E+00  1.1647E-03   '
               '2.9542E+00  0.000E+00  0.000E+00  0.000E+00  1.29734E+02  '
               '1.284E+00  3.349E+00  6.527E-04  1.163E-03  1.185E-06\n',
               '-   1    4   40     1    40    2.9542E+00  1.1644E-03   '
               '2.9531E+00  0.000E+00  0.000E+00  0.000E+00  1.29434E+02  '
               '1.284E+00  3.349E+00  6.526E-04  1.163E-03  1.433E-06\n',
               '-   1    4   41     1    41    2.9531E+00  1.1640E-03   '
               '2.9519E+00  0.000E+00  0.000E+00  0.000E+00  1.29134E+02  '
               '1.284E+00  3.348E+00  6.525E-04  1.162E-03  1.681E-06\n',
               '-   1    4   42     1    42    2.9519E+00  1.1637E-03   '
               '2.9507E+00  0.000E+00  0.000E+00  0.000E+00  1.28833E+02  '
               '1.283E+00  3.348E+00  6.524E-04  1.162E-03  1.929E-06\n',
               '-   1    4   43     1    43    2.9507E+00  1.1634E-03   '
               '2.9496E+00  0.000E+00  0.000E+00  0.000E+00  1.28533E+02  '
               '1.283E+00  3.348E+00  6.523E-04  1.161E-03  2.174E-06\n',
               '-   1    4   44     1    44    2.9496E+00  1.1631E-03   '
               '2.9484E+00  0.000E+00  0.000E+00  0.000E+00  1.28233E+02  '
               '1.283E+00  3.347E+00  6.523E-04  1.161E-03  2.417E-06\n',
               '-   1    4   45     1    45    2.9484E+00  1.1627E-03   '
               '2.9472E+00  0.000E+00  0.000E+00  0.000E+00  1.27933E+02  '
               '1.283E+00  3.347E+00  6.522E-04  1.160E-03  2.657E-06\n',
               '-   1    4   46     1    46    2.9472E+00  1.1624E-03   '
               '2.9461E+00  0.000E+00  0.000E+00  0.000E+00  1.27632E+02  '
               '1.282E+00  3.347E+00  6.521E-04  1.160E-03  2.894E-06\n',
               '-   1    4   47     1    47    2.9461E+00  1.1621E-03   '
               '2.9449E+00  0.000E+00  0.000E+00  0.000E+00  1.27332E+02  '
               '1.282E+00  3.346E+00  6.520E-04  1.159E-03  3.128E-06\n',
               '-   1    4   48     1    48    2.9449E+00  1.1618E-03   '
               '2.9437E+00  0.000E+00  0.000E+00  0.000E+00  1.27032E+02  '
               '1.282E+00  3.346E+00  6.519E-04  1.158E-03  3.359E-06\n',
               '-   1    4   49     1    49    2.9437E+00  1.1614E-03   '
               '2.9426E+00  0.000E+00  0.000E+00  0.000E+00  1.26732E+02  '
               '1.282E+00  3.346E+00  6.518E-04  1.158E-03  3.585E-06\n',
               '-   1    4   50     1    50    2.9426E+00  1.1611E-03   '
               '2.9414E+00  0.000E+00  0.000E+00  0.000E+00  1.26431E+02  '
               '1.281E+00  3.345E+00  6.517E-04  1.157E-03  3.806E-06\n',
               '-   1    4   51     1    51    2.9414E+00  1.1608E-03   '
               '2.9403E+00  0.000E+00  0.000E+00  0.000E+00  1.26131E+02  '
               '1.281E+00  3.345E+00  6.517E-04  1.157E-03  4.120E-06\n',
               '-   1    4   52     1    52    2.9403E+00  1.1605E-03   '
               '2.9391E+00  0.000E+00  0.000E+00  0.000E+00  1.25831E+02  '
               '1.281E+00  3.345E+00  6.516E-04  1.156E-03  4.759E-06\n',
               '-   1    4   53     1    53    2.9391E+00  1.1601E-03   '
               '2.9379E+00  0.000E+00  0.000E+00  0.000E+00  1.25531E+02  '
               '1.281E+00  3.345E+00  6.515E-04  1.156E-03  4.039E-06\n',
               '-   1    4   54     1    54    2.9379E+00  1.1598E-03   '
               '2.9368E+00  0.000E+00  0.000E+00  0.000E+00  1.25230E+02  '
               '1.280E+00  3.344E+00  6.514E-04  1.156E-03  3.983E-06\n',
               '-   1    4   55     1    55    2.9368E+00  1.1595E-03   '
               '2.9356E+00  0.000E+00  0.000E+00  0.000E+00  1.24930E+02  '
               '1.280E+00  3.344E+00  6.513E-04  1.155E-03  4.169E-06\n',
               '-   1    4   56     1    56    2.9356E+00  1.1592E-03   '
               '2.9345E+00  0.000E+00  0.000E+00  0.000E+00  1.24630E+02  '
               '1.280E+00  3.344E+00  6.512E-04  1.155E-03  4.347E-06\n',
               '-   1    4   57     1    57    2.9345E+00  1.1589E-03   '
               '2.9333E+00  0.000E+00  0.000E+00  0.000E+00  1.24329E+02  '
               '1.279E+00  3.343E+00  6.511E-04  1.154E-03  4.516E-06\n',
               '-   1    4   58     1    58    2.9333E+00  1.1585E-03   '
               '2.9321E+00  0.000E+00  0.000E+00  0.000E+00  1.24029E+02  '
               '1.279E+00  3.343E+00  6.511E-04  1.154E-03  4.679E-06\n',
               '-   1    4   59     1    59    2.9321E+00  1.1582E-03   '
               '2.9310E+00  0.000E+00  0.000E+00  0.000E+00  1.23729E+02  '
               '1.279E+00  3.343E+00  6.510E-04  1.153E-03  4.831E-06\n',
               '-   1    4   60     1    60    2.9310E+00  1.1579E-03   '
               '2.9298E+00  0.000E+00  0.000E+00  0.000E+00  1.23429E+02  '
               '1.279E+00  3.342E+00  6.509E-04  1.153E-03  4.973E-06\n',
               '-   1    4   61     1    61    2.9298E+00  1.1576E-03   '
               '2.9287E+00  0.000E+00  0.000E+00  0.000E+00  1.23128E+02  '
               '1.278E+00  3.342E+00  6.508E-04  1.152E-03  5.103E-06\n',
               '-   1    4   62     1    62    2.9287E+00  1.1572E-03   '
               '2.9275E+00  0.000E+00  0.000E+00  0.000E+00  1.22828E+02  '
               '1.278E+00  3.342E+00  6.507E-04  1.152E-03  5.225E-06\n',
               '-   1    4   63     1    63    2.9275E+00  1.1569E-03   '
               '2.9264E+00  0.000E+00  0.000E+00  0.000E+00  1.22528E+02  '
               '1.278E+00  3.341E+00  6.506E-04  1.152E-03  5.332E-06\n',
               '-   1    4   64     1    64    2.9264E+00  1.1566E-03   '
               '2.9252E+00  0.000E+00  0.000E+00  0.000E+00  1.22228E+02  '
               '1.278E+00  3.341E+00  6.505E-04  1.151E-03  5.427E-06\n',
               '-   1    4   65     1    65    2.9252E+00  1.1563E-03   '
               '2.9240E+00  0.000E+00  0.000E+00  0.000E+00  1.21927E+02  '
               '1.277E+00  3.341E+00  6.505E-04  1.151E-03  5.509E-06\n',
               '-   1    4   66     1    66    2.9240E+00  1.1559E-03   '
               '2.9229E+00  0.000E+00  0.000E+00  0.000E+00  1.21627E+02  '
               '1.277E+00  3.340E+00  6.504E-04  1.151E-03  5.005E-06\n',
               '-   1    4   67     1    67    2.9229E+00  1.1556E-03   '
               '2.9217E+00  0.000E+00  0.000E+00  0.000E+00  1.21327E+02  '
               '1.277E+00  3.340E+00  6.503E-04  1.151E-03  4.540E-06\n',
               '-   1    4   68     1    68    2.9217E+00  1.1553E-03   '
               '2.9206E+00  0.000E+00  0.000E+00  0.000E+00  1.21027E+02  '
               '1.277E+00  3.340E+00  6.502E-04  1.151E-03  4.593E-06\n',
               '-   1    4   69     1    69    2.9206E+00  1.1550E-03   '
               '2.9194E+00  0.000E+00  0.000E+00  0.000E+00  1.20726E+02  '
               '1.276E+00  3.340E+00  6.501E-04  1.150E-03  4.630E-06\n',
               '-   1    4   70     1    70    2.9194E+00  1.1547E-03   '
               '2.9183E+00  0.000E+00  0.000E+00  0.000E+00  1.20426E+02  '
               '1.276E+00  3.339E+00  6.500E-04  1.150E-03  4.649E-06\n',
               '-   1    4   71     1    71    2.9183E+00  1.1543E-03   '
               '2.9171E+00  0.000E+00  0.000E+00  0.000E+00  1.20126E+02  '
               '1.276E+00  3.339E+00  6.499E-04  1.150E-03  4.649E-06\n',
               '-   1    4   72     1    72    2.9171E+00  1.1540E-03   '
               '2.9160E+00  0.000E+00  0.000E+00  0.000E+00  1.19826E+02  '
               '1.276E+00  3.339E+00  6.499E-04  1.149E-03  4.628E-06\n',
               '-   1    4   73     1    73    2.9160E+00  1.1537E-03   '
               '2.9148E+00  0.000E+00  0.000E+00  0.000E+00  1.19525E+02  '
               '1.275E+00  3.338E+00  6.498E-04  1.149E-03  4.235E-06\n',
               '-   1    4   74     1    74    2.9148E+00  1.1534E-03   '
               '2.9137E+00  0.000E+00  0.000E+00  0.000E+00  1.19225E+02  '
               '1.275E+00  3.338E+00  6.497E-04  1.150E-03  3.075E-06\n',
               '-   1    4   75     1    75    2.9137E+00  1.1531E-03   '
               '2.9125E+00  0.000E+00  0.000E+00  0.000E+00  1.18925E+02  '
               '1.275E+00  3.338E+00  6.496E-04  1.150E-03  2.995E-06\n',
               '-   1    4   76     1    76    2.9125E+00  1.1527E-03   '
               '2.9114E+00  0.000E+00  0.000E+00  0.000E+00  1.18624E+02  '
               '1.274E+00  3.337E+00  6.495E-04  1.150E-03  2.888E-06\n',
               '-   1    4   77     1    77    2.9114E+00  1.1524E-03   '
               '2.9102E+00  0.000E+00  0.000E+00  0.000E+00  1.18324E+02  '
               '1.274E+00  3.337E+00  6.494E-04  1.150E-03  2.755E-06\n',
               '-   1    4   78     1    78    2.9102E+00  1.1521E-03   '
               '2.9090E+00  0.000E+00  0.000E+00  0.000E+00  1.18024E+02  '
               '1.274E+00  3.337E+00  6.493E-04  1.149E-03  2.594E-06\n',
               '-   1    4   79     1    79    2.9090E+00  1.1518E-03   '
               '2.9079E+00  0.000E+00  0.000E+00  0.000E+00  1.17724E+02  '
               '1.274E+00  3.336E+00  6.493E-04  1.149E-03  2.405E-06\n',
               '-   1    4   80     1    80    2.9079E+00  1.1514E-03   '
               '2.9067E+00  0.000E+00  0.000E+00  0.000E+00  1.17423E+02  '
               '1.273E+00  3.336E+00  6.492E-04  1.154E-03 -2.195E-06\n',
               '-   1    4   81     1    81    2.9067E+00  1.1511E-03   '
               '2.9056E+00  0.000E+00  0.000E+00  0.000E+00  1.17123E+02  '
               '1.273E+00  3.336E+00  6.491E-04  1.154E-03 -2.427E-06\n',
               '-   1    4   82     1    82    2.9056E+00  1.1508E-03   '
               '2.9044E+00  0.000E+00  0.000E+00  0.000E+00  1.16823E+02  '
               '1.273E+00  3.335E+00  6.490E-04  1.153E-03 -2.687E-06\n',
               '-   1    4   83     1    83    2.9044E+00  1.1505E-03   '
               '2.9033E+00  0.000E+00  0.000E+00  0.000E+00  1.16523E+02  '
               '1.273E+00  3.335E+00  6.489E-04  1.153E-03 -2.973E-06\n',
               '-   1    4   84     1    84    2.9033E+00  1.1502E-03   '
               '2.9021E+00  0.000E+00  0.000E+00  0.000E+00  1.16222E+02  '
               '1.272E+00  3.335E+00  6.488E-04  1.155E-03 -4.553E-06\n',
               '-   1    4   85     1    85    2.9021E+00  1.1498E-03   '
               '2.9010E+00  0.000E+00  0.000E+00  0.000E+00  1.15922E+02  '
               '1.272E+00  3.335E+00  6.488E-04  1.155E-03 -4.900E-06\n',
               '-   1    4   86     1    86    2.9010E+00  1.1495E-03   '
               '2.8998E+00  0.000E+00  0.000E+00  0.000E+00  1.15622E+02  '
               '1.272E+00  3.334E+00  6.487E-04  1.155E-03 -5.265E-06\n',
               '-   1    4   87     1    87    2.8998E+00  1.1492E-03   '
               '2.8987E+00  0.000E+00  0.000E+00  0.000E+00  1.15322E+02  '
               '1.272E+00  3.334E+00  6.486E-04  1.155E-03 -5.630E-06\n',
               '-   1    4   88     1    88    2.8987E+00  1.1489E-03   '
               '2.8975E+00  0.000E+00  0.000E+00  0.000E+00  1.15021E+02  '
               '1.271E+00  3.334E+00  6.485E-04  1.155E-03 -5.743E-06\n',
               '-   1    4   89     1    89    2.8975E+00  1.1486E-03   '
               '2.8964E+00  0.000E+00  0.000E+00  0.000E+00  1.14721E+02  '
               '1.271E+00  3.333E+00  6.484E-04  1.155E-03 -6.251E-06\n',
               '-   1    4   90     1    90    2.8964E+00  1.1482E-03   '
               '2.8952E+00  0.000E+00  0.000E+00  0.000E+00  1.14421E+02  '
               '1.271E+00  3.333E+00  6.483E-04  1.162E-03 -1.404E-05\n',
               '-   1    4   91     1    91    2.8952E+00  1.1479E-03   '
               '2.8941E+00  0.000E+00  0.000E+00  0.000E+00  1.14121E+02  '
               '1.271E+00  3.333E+00  6.482E-04  1.162E-03 -1.457E-05\n',
               '-   1    4   92     1    92    2.8941E+00  1.1476E-03   '
               '2.8930E+00  0.000E+00  0.000E+00  0.000E+00  1.13820E+02  '
               '1.270E+00  3.332E+00  6.482E-04  1.163E-03 -1.507E-05\n',
               '-   1    4   93     1    93    2.8930E+00  1.1473E-03   '
               '2.8918E+00  0.000E+00  0.000E+00  0.000E+00  1.13520E+02  '
               '1.270E+00  3.332E+00  6.481E-04  1.163E-03 -1.555E-05\n',
               '-   1    4   94     1    94    2.8918E+00  1.1470E-03   '
               '2.8907E+00  0.000E+00  0.000E+00  0.000E+00  1.13220E+02  '
               '1.270E+00  3.332E+00  6.480E-04  1.163E-03 -1.601E-05\n',
               '-   1    4   95     1    95    2.8907E+00  1.1466E-03   '
               '2.8895E+00  0.000E+00  0.000E+00  0.000E+00  1.12920E+02  '
               '1.270E+00  3.331E+00  6.479E-04  1.163E-03 -1.643E-05\n',
               '-   1    4   96     1    96    2.8895E+00  1.1463E-03   '
               '2.8884E+00  0.000E+00  0.000E+00  0.000E+00  1.12619E+02  '
               '1.269E+00  3.331E+00  6.478E-04  1.163E-03 -1.683E-05\n',
               '-   1    4   97     1    97    2.8884E+00  1.1460E-03   '
               '2.8872E+00  0.000E+00  0.000E+00  0.000E+00  1.12319E+02  '
               '1.269E+00  3.331E+00  6.477E-04  1.163E-03 -1.722E-05\n',
               '-   1    4   98     1    98    2.8872E+00  1.1457E-03   '
               '2.8861E+00  0.000E+00  0.000E+00  0.000E+00  1.12019E+02  '
               '1.269E+00  3.330E+00  6.476E-04  1.163E-03 -1.760E-05\n',
               '-   1    4   99     1    99    2.8861E+00  1.1454E-03   '
               '2.8849E+00  0.000E+00  0.000E+00  0.000E+00  1.11718E+02  '
               '1.268E+00  3.330E+00  6.476E-04  1.163E-03 -1.798E-05\n',
               '-   1    4  100     1   100    2.8849E+00  1.1450E-03   '
               '2.8838E+00  0.000E+00  0.000E+00  0.000E+00  1.11418E+02  '
               '1.268E+00  3.330E+00  6.475E-04  1.163E-03 -1.836E-05\n',
               '-\n',
               '-\n',
               '-\n',
               '-1\n',
               '-  VOLUMETRIC BUDGET FOR UNSATURATED ZONE BENEATH STREAMS AT '
               'END OF TIME STEP    30 STRESS PERIOD  39\n',
               '-  '
               '------------------------------------------------------------------------------------------------\n',
               '-\n',
               '-    CUMULATIVE VOLUMES             L**3    RATES FOR THIS '
               'TIME STEP         L**3/T\n',
               '-    ------------------                     '
               '------------------------\n',
               '-\n',
               '-\n',
               '-          STREAM LOSS =     30942062.0000            STREAM '
               'LOSS =            0.1161\n',
               '-    CHANGE IN STORAGE =       365010.6562      CHANGE IN '
               'STORAGE =       -1.9802E-04\n',
               '-       RECHARGE TO GW =     30581168.0000         RECHARGE TO '
               'GW =            0.1163\n',
               '-\n',
               '-             TOTAL IN =     30942062.0000               TOTAL '
               'IN =            0.1163\n',
               '-\n',
               '-            TOTAL OUT =     30946178.0000              TOTAL '
               'OUT =            0.1163\n',
               '-\n',
               '-             IN - OUT =        -4116.0000               IN - '
               'OUT =        7.4506E-09\n',
               '-\n',
               '-  PERCENT DISCREPANCY =           -0.00      PERCENT '
               'DISCREPANCY =             0.00\n',
               '-\n',
               '-\n',
               '-\n',
               '-1\n',
               '-  VOLUMETRIC BUDGET FOR ENTIRE MODEL AT END OF TIME STEP   '
               '30, STRESS PERIOD  39\n',
               '-  '
               '------------------------------------------------------------------------------\n',
               '-\n',
               '-     CUMULATIVE VOLUMES      L**3       RATES FOR THIS TIME '
               'STEP      L**3/T\n',
               '-     ------------------                 '
               '------------------------\n',
               '-\n',
               '-           IN:                                      IN:\n',
               '-           ---                                      ---\n',
               '-             STORAGE =    16336659.0000               STORAGE '
               '=       7.8122E-02\n',
               '-       CONSTANT HEAD =           0.0000         CONSTANT HEAD '
               '=           0.0000\n',
               '-     HEAD DEP BOUNDS =           0.0000       HEAD DEP BOUNDS '
               '=           0.0000\n',
               '-      STREAM LEAKAGE =    30581030.0000        STREAM LEAKAGE '
               '=           0.1163\n',
               '-\n',
               '-            TOTAL IN =    46917688.0000              TOTAL IN '
               '=           0.1944\n',
               '-\n',
               '-          OUT:                                     OUT:\n',
               '-          ----                                     ----\n',
               '-             STORAGE =    15958064.0000               STORAGE '
               '=           0.0000\n',
               '-       CONSTANT HEAD =           0.0000         CONSTANT HEAD '
               '=           0.0000\n',
               '-     HEAD DEP BOUNDS =    30959348.0000       HEAD DEP BOUNDS '
               '=           0.1943\n',
               '-      STREAM LEAKAGE =           0.0000        STREAM LEAKAGE '
               '=           0.0000\n',
               '-\n',
               '-           TOTAL OUT =    46917412.0000             TOTAL OUT '
               '=           0.1943\n',
               '-\n',
               '-            IN - OUT =         276.0000              IN - OUT '
               '=       1.3371E-04\n',
               '-\n',
               '- PERCENT DISCREPANCY =           0.00     PERCENT DISCREPANCY '
               '=           0.07\n',
               '-\n',
               '-\n',
               '-\n',
               '-\n',
               '-\n',
               '-\n',
               '-         TIME SUMMARY AT END OF TIME STEP   30 IN STRESS '
               'PERIOD   39\n',
               '-                    SECONDS     MINUTES      HOURS       '
               'DAYS        YEARS\n',
               '-                    '
               '-----------------------------------------------------------\n',
               '-   TIME STEP LENGTH 2.49961E+05  4166.0      69.434      '
               '2.8931     7.92080E-03\n',
               '- STRESS PERIOD TIME 2.59200E+06  43200.      720.00      '
               '30.000     8.21355E-02\n',
               '-         TOTAL TIME 1.01088E+08 1.68480E+06  28080.      '
               '1170.0      3.2033    \n',
               '-1\n',
               '-1\n',
               '-                            STRESS PERIOD NO.   40, LENGTH '
               '=   2592000.    \n',
               '-                            '
               '-----------------------------------------------\n',
               '-\n',
               '-                              NUMBER OF TIME STEPS =    30\n',
               '-\n',
               '-                               MULTIPLIER FOR DELT =     '
               '1.100\n',
               '-\n',
               '-                            INITIAL TIME STEP SIZE =   '
               '15757.40    \n',
               '-\n',
               '- REUSING NON-PARAMETER GHB CELLS FROM LAST STRESS PERIOD\n',
               '-\n',
               '-      7 GHB CELLS\n',
               '- \n',
               '- SOLVING FOR HEAD \n',
               '-\n',
               '- NO OUTPUT CONTROL FOR STRESS PERIOD   40   TIME STEP    1\n',
               '- \n',
               '- SOLVING FOR HEAD \n',
               '-\n',
               '- NO OUTPUT CONTROL FOR STRESS PERIOD   40   TIME STEP    2\n',
               '- \n',
               '- SOLVING FOR HEAD \n',
               '-\n',
               '- NO OUTPUT CONTROL FOR STRESS PERIOD   40   TIME STEP    3\n',
               '- \n',
               '- SOLVING FOR HEAD \n',
               '-\n',
               '- NO OUTPUT CONTROL FOR STRESS PERIOD   40   TIME STEP    4\n',
               '- \n',
               '- SOLVING FOR HEAD \n',
               '-\n',
               '- NO OUTPUT CONTROL FOR STRESS PERIOD   40   TIME STEP    5\n',
               '- \n',
               '- SOLVING FOR HEAD \n',
               '-\n',
               '- NO OUTPUT CONTROL FOR STRESS PERIOD   40   TIME STEP    6\n',
               '- \n',
               '- SOLVING FOR HEAD \n',
               '-\n',
               '- NO OUTPUT CONTROL FOR STRESS PERIOD   40   TIME STEP    7\n',
               '- \n',
               '- SOLVING FOR HEAD \n',
               '-\n',
               '- NO OUTPUT CONTROL FOR STRESS PERIOD   40   TIME STEP    8\n',
               '- \n',
               '- SOLVING FOR HEAD \n',
               '-\n',
               '- NO OUTPUT CONTROL FOR STRESS PERIOD   40   TIME STEP    9\n',
               '- \n',
               '- SOLVING FOR HEAD \n',
               '-\n',
               '- NO OUTPUT CONTROL FOR STRESS PERIOD   40   TIME STEP   10\n',
               '- \n',
               '- SOLVING FOR HEAD \n',
               '-\n',
               '- NO OUTPUT CONTROL FOR STRESS PERIOD   40   TIME STEP   11\n',
               '- \n',
               '- SOLVING FOR HEAD \n',
               '-\n',
               '- NO OUTPUT CONTROL FOR STRESS PERIOD   40   TIME STEP   12\n',
               '- \n',
               '- SOLVING FOR HEAD \n',
               '-\n',
               '- NO OUTPUT CONTROL FOR STRESS PERIOD   40   TIME STEP   13\n',
               '- \n',
               '- SOLVING FOR HEAD \n',
               '-\n',
               '- NO OUTPUT CONTROL FOR STRESS PERIOD   40   TIME STEP   14\n',
               '- \n',
               '- SOLVING FOR HEAD \n',
               '-\n',
               '- NO OUTPUT CONTROL FOR STRESS PERIOD   40   TIME STEP   15\n',
               '- \n',
               '- SOLVING FOR HEAD \n',
               '-\n',
               '- NO OUTPUT CONTROL FOR STRESS PERIOD   40   TIME STEP   16\n',
               '- \n',
               '- SOLVING FOR HEAD \n',
               '-\n',
               '- NO OUTPUT CONTROL FOR STRESS PERIOD   40   TIME STEP   17\n',
               '- \n',
               '- SOLVING FOR HEAD \n',
               '-\n',
               '- NO OUTPUT CONTROL FOR STRESS PERIOD   40   TIME STEP   18\n',
               '- \n',
               '- SOLVING FOR HEAD \n',
               '-\n',
               '- NO OUTPUT CONTROL FOR STRESS PERIOD   40   TIME STEP   19\n',
               '- \n',
               '- SOLVING FOR HEAD \n',
               '-\n',
               '- NO OUTPUT CONTROL FOR STRESS PERIOD   40   TIME STEP   20\n',
               '- \n',
               '- SOLVING FOR HEAD \n',
               '-\n',
               '- NO OUTPUT CONTROL FOR STRESS PERIOD   40   TIME STEP   21\n',
               '- \n',
               '- SOLVING FOR HEAD \n',
               '-\n',
               '- NO OUTPUT CONTROL FOR STRESS PERIOD   40   TIME STEP   22\n',
               '- \n',
               '- SOLVING FOR HEAD \n',
               '-\n',
               '- NO OUTPUT CONTROL FOR STRESS PERIOD   40   TIME STEP   23\n',
               '- \n',
               '- SOLVING FOR HEAD \n',
               '-\n',
               '- NO OUTPUT CONTROL FOR STRESS PERIOD   40   TIME STEP   24\n',
               '- \n',
               '- SOLVING FOR HEAD \n',
               '-\n',
               '- NO OUTPUT CONTROL FOR STRESS PERIOD   40   TIME STEP   25\n',
               '- \n',
               '- SOLVING FOR HEAD \n',
               '-\n',
               '- NO OUTPUT CONTROL FOR STRESS PERIOD   40   TIME STEP   26\n',
               '- \n',
               '- SOLVING FOR HEAD \n',
               '-\n',
               '- NO OUTPUT CONTROL FOR STRESS PERIOD   40   TIME STEP   27\n',
               '- \n',
               '- SOLVING FOR HEAD \n',
               '-\n',
               '- NO OUTPUT CONTROL FOR STRESS PERIOD   40   TIME STEP   28\n',
               '- \n',
               '- SOLVING FOR HEAD \n',
               '-\n',
               '- NO OUTPUT CONTROL FOR STRESS PERIOD   40   TIME STEP   29\n',
               '- \n',
               '- SOLVING FOR HEAD \n',
               '-\n',
               '- OUTPUT CONTROL FOR STRESS PERIOD   40   TIME STEP   30\n',
               '-    PRINT HEAD FOR ALL LAYERS\n',
               '-    PRINT BUDGET\n',
               '-    SAVE BUDGET\n',
               '-\n',
               '-  HEAD DEP BOUNDS   PERIOD   40   STEP  30\n',
               '- BOUNDARY      1   LAYER   1   ROW     1   COL   100   RATE   '
               '-2.868359E-02\n',
               '- BOUNDARY      2   LAYER   1   ROW     2   COL   100   RATE   '
               '-2.869794E-02\n',
               '- BOUNDARY      3   LAYER   1   ROW     3   COL   100   RATE   '
               '-2.846762E-02\n',
               '- BOUNDARY      4   LAYER   1   ROW     4   COL   100   RATE   '
               '-2.085061E-02\n',
               '- BOUNDARY      5   LAYER   1   ROW     5   COL   100   RATE   '
               '-2.846762E-02\n',
               '- BOUNDARY      6   LAYER   1   ROW     6   COL   100   RATE   '
               '-2.869794E-02\n',
               '- BOUNDARY      7   LAYER   1   ROW     7   COL   100   RATE   '
               '-2.868359E-02\n',
               '-\n',
               '-\n',
               '-\n',
               '- STREAM LISTING     PERIOD     40   STEP       30\n',
               '-\n',
               '- LAYER ROW COL. STREAM  RCH.   FLOW INTO    STREAM     FLOW '
               'OUT OF   OVRLND.    DIRECT     STREAM      STREAM      '
               'STREAM     STREAM  STREAMBED   FLOW TO   CHNG. UNSAT. \n',
               '-                SEG.NO.  NO.   STRM. RCH.    LOSS       STRM. '
               'RCH.   RUNOFF     PRECIP       ET         HEAD        '
               'DEPTH      WIDTH  CONDCTNC.   WAT. TAB.\n',
               '-\n',
               '-   1    4    1     1     1    2.4638E+00  1.0253E-03   '
               '2.4628E+00  0.000E+00  0.000E+00  0.000E+00  1.41019E+02  '
               '1.169E+00  3.211E+00  6.150E-04  1.030E-03 -4.806E-06\n',
               '-   1    4    2     1     2    2.4628E+00  1.0250E-03   '
               '2.4618E+00  0.000E+00  0.000E+00  0.000E+00  1.40718E+02  '
               '1.168E+00  3.210E+00  6.149E-04  1.030E-03 -4.758E-06\n',
               '-   1    4    3     1     3    2.4618E+00  1.0247E-03   '
               '2.4608E+00  0.000E+00  0.000E+00  0.000E+00  1.40418E+02  '
               '1.168E+00  3.210E+00  6.148E-04  1.029E-03 -4.701E-06\n',
               '-   1    4    4     1     4    2.4608E+00  1.0244E-03   '
               '2.4597E+00  0.000E+00  0.000E+00  0.000E+00  1.40118E+02  '
               '1.168E+00  3.210E+00  6.148E-04  1.029E-03 -4.635E-06\n',
               '-   1    4    5     1     5    2.4597E+00  1.0241E-03   '
               '2.4587E+00  0.000E+00  0.000E+00  0.000E+00  1.39818E+02  '
               '1.168E+00  3.210E+00  6.147E-04  1.029E-03 -4.563E-06\n',
               '-   1    4    6     1     6    2.4587E+00  1.0238E-03   '
               '2.4577E+00  0.000E+00  0.000E+00  0.000E+00  1.39517E+02  '
               '1.167E+00  3.209E+00  6.146E-04  1.028E-03 -4.481E-06\n',
               '-   1    4    7     1     7    2.4577E+00  1.0235E-03   '
               '2.4567E+00  0.000E+00  0.000E+00  0.000E+00  1.39217E+02  '
               '1.167E+00  3.209E+00  6.145E-04  1.028E-03 -4.391E-06\n',
               '-   1    4    8     1     8    2.4567E+00  1.0233E-03   '
               '2.4557E+00  0.000E+00  0.000E+00  0.000E+00  1.38917E+02  '
               '1.167E+00  3.209E+00  6.144E-04  1.028E-03 -4.292E-06\n',
               '-   1    4    9     1     9    2.4557E+00  1.0230E-03   '
               '2.4546E+00  0.000E+00  0.000E+00  0.000E+00  1.38617E+02  '
               '1.167E+00  3.208E+00  6.143E-04  1.027E-03 -4.186E-06\n',
               '-   1    4   10     1    10    2.4546E+00  1.0227E-03   '
               '2.4536E+00  0.000E+00  0.000E+00  0.000E+00  1.38316E+02  '
               '1.166E+00  3.208E+00  6.143E-04  1.027E-03 -4.073E-06\n',
               '-   1    4   11     1    11    2.4536E+00  1.0224E-03   '
               '2.4526E+00  0.000E+00  0.000E+00  0.000E+00  1.38016E+02  '
               '1.166E+00  3.208E+00  6.142E-04  1.026E-03 -3.950E-06\n',
               '-   1    4   12     1    12    2.4526E+00  1.0221E-03   '
               '2.4516E+00  0.000E+00  0.000E+00  0.000E+00  1.37716E+02  '
               '1.166E+00  3.207E+00  6.141E-04  1.026E-03 -3.820E-06\n',
               '-   1    4   13     1    13    2.4516E+00  1.0218E-03   '
               '2.4505E+00  0.000E+00  0.000E+00  0.000E+00  1.37416E+02  '
               '1.166E+00  3.207E+00  6.140E-04  1.025E-03 -3.682E-06\n',
               '-   1    4   14     1    14    2.4505E+00  1.0215E-03   '
               '2.4495E+00  0.000E+00  0.000E+00  0.000E+00  1.37115E+02  '
               '1.165E+00  3.207E+00  6.139E-04  1.025E-03 -3.538E-06\n',
               '-   1    4   15     1    15    2.4495E+00  1.0212E-03   '
               '2.4485E+00  0.000E+00  0.000E+00  0.000E+00  1.36815E+02  '
               '1.165E+00  3.207E+00  6.139E-04  1.025E-03 -3.387E-06\n',
               '-   1    4   16     1    16    2.4485E+00  1.0209E-03   '
               '2.4475E+00  0.000E+00  0.000E+00  0.000E+00  1.36515E+02  '
               '1.165E+00  3.206E+00  6.138E-04  1.024E-03 -3.228E-06\n',
               '-   1    4   17     1    17    2.4475E+00  1.0206E-03   '
               '2.4465E+00  0.000E+00  0.000E+00  0.000E+00  1.36215E+02  '
               '1.165E+00  3.206E+00  6.137E-04  1.024E-03 -3.063E-06\n',
               '-   1    4   18     1    18    2.4465E+00  1.0203E-03   '
               '2.4454E+00  0.000E+00  0.000E+00  0.000E+00  1.35914E+02  '
               '1.164E+00  3.206E+00  6.136E-04  1.023E-03 -2.892E-06\n',
               '-   1    4   19     1    19    2.4454E+00  1.0201E-03   '
               '2.4444E+00  0.000E+00  0.000E+00  0.000E+00  1.35614E+02  '
               '1.164E+00  3.205E+00  6.135E-04  1.023E-03 -2.713E-06\n',
               '-   1    4   20     1    20    2.4444E+00  1.0198E-03   '
               '2.4434E+00  0.000E+00  0.000E+00  0.000E+00  1.35314E+02  '
               '1.164E+00  3.205E+00  6.134E-04  1.022E-03 -2.529E-06\n',
               '-   1    4   21     1    21    2.4434E+00  1.0195E-03   '
               '2.4424E+00  0.000E+00  0.000E+00  0.000E+00  1.35014E+02  '
               '1.164E+00  3.205E+00  6.134E-04  1.022E-03 -2.338E-06\n',
               '-   1    4   22     1    22    2.4424E+00  1.0192E-03   '
               '2.4414E+00  0.000E+00  0.000E+00  0.000E+00  1.34713E+02  '
               '1.163E+00  3.204E+00  6.133E-04  1.021E-03 -2.142E-06\n',
               '-   1    4   23     1    23    2.4414E+00  1.0189E-03   '
               '2.4403E+00  0.000E+00  0.000E+00  0.000E+00  1.34413E+02  '
               '1.163E+00  3.204E+00  6.132E-04  1.021E-03 -1.941E-06\n',
               '-   1    4   24     1    24    2.4403E+00  1.0186E-03   '
               '2.4393E+00  0.000E+00  0.000E+00  0.000E+00  1.34113E+02  '
               '1.163E+00  3.204E+00  6.131E-04  1.020E-03 -1.736E-06\n',
               '-   1    4   25     1    25    2.4393E+00  1.0183E-03   '
               '2.4383E+00  0.000E+00  0.000E+00  0.000E+00  1.33813E+02  '
               '1.163E+00  3.204E+00  6.130E-04  1.020E-03 -1.526E-06\n',
               '-   1    4   26     1    26    2.4383E+00  1.0180E-03   '
               '2.4373E+00  0.000E+00  0.000E+00  0.000E+00  1.33512E+02  '
               '1.162E+00  3.203E+00  6.130E-04  1.019E-03 -1.312E-06\n',
               '-   1    4   27     1    27    2.4373E+00  1.0177E-03   '
               '2.4363E+00  0.000E+00  0.000E+00  0.000E+00  1.33212E+02  '
               '1.162E+00  3.203E+00  6.129E-04  1.019E-03 -1.092E-06\n',
               '-   1    4   28     1    28    2.4363E+00  1.0174E-03   '
               '2.4353E+00  0.000E+00  0.000E+00  0.000E+00  1.32912E+02  '
               '1.162E+00  3.203E+00  6.128E-04  1.018E-03 -8.704E-07\n',
               '-   1    4   29     1    29    2.4353E+00  1.0172E-03   '
               '2.4342E+00  0.000E+00  0.000E+00  0.000E+00  1.32612E+02  '
               '1.162E+00  3.202E+00  6.127E-04  1.018E-03 -6.431E-07\n',
               '-   1    4   30     1    30    2.4342E+00  1.0169E-03   '
               '2.4332E+00  0.000E+00  0.000E+00  0.000E+00  1.32311E+02  '
               '1.161E+00  3.202E+00  6.126E-04  1.017E-03 -4.126E-07\n',
               '-   1    4   31     1    31    2.4332E+00  1.0166E-03   '
               '2.4322E+00  0.000E+00  0.000E+00  0.000E+00  1.32011E+02  '
               '1.161E+00  3.202E+00  6.125E-04  1.017E-03 -1.787E-07\n',
               '-   1    4   32     1    32    2.4322E+00  1.0163E-03   '
               '2.4312E+00  0.000E+00  0.000E+00  0.000E+00  1.31711E+02  '
               '1.161E+00  3.201E+00  6.125E-04  1.016E-03  5.752E-08\n',
               '-   1    4   33     1    33    2.4312E+00  1.0160E-03   '
               '2.4302E+00  0.000E+00  0.000E+00  0.000E+00  1.31411E+02  '
               '1.161E+00  3.201E+00  6.124E-04  1.016E-03  2.950E-07\n',
               '-   1    4   34     1    34    2.4302E+00  1.0157E-03   '
               '2.4292E+00  0.000E+00  0.000E+00  0.000E+00  1.31110E+02  '
               '1.160E+00  3.201E+00  6.123E-04  1.015E-03  5.349E-07\n',
               '-   1    4   35     1    35    2.4292E+00  1.0154E-03   '
               '2.4281E+00  0.000E+00  0.000E+00  0.000E+00  1.30810E+02  '
               '1.160E+00  3.201E+00  6.122E-04  1.015E-03  7.764E-07\n',
               '-   1    4   36     1    36    2.4281E+00  1.0151E-03   '
               '2.4271E+00  0.000E+00  0.000E+00  0.000E+00  1.30510E+02  '
               '1.160E+00  3.200E+00  6.121E-04  1.014E-03  1.019E-06\n',
               '-   1    4   37     1    37    2.4271E+00  1.0148E-03   '
               '2.4261E+00  0.000E+00  0.000E+00  0.000E+00  1.30210E+02  '
               '1.160E+00  3.200E+00  6.121E-04  1.014E-03  1.263E-06\n',
               '-   1    4   38     1    38    2.4261E+00  1.0146E-03   '
               '2.4251E+00  0.000E+00  0.000E+00  0.000E+00  1.29909E+02  '
               '1.159E+00  3.200E+00  6.120E-04  1.013E-03  1.740E-06\n',
               '-   1    4   39     1    39    2.4251E+00  1.0143E-03   '
               '2.4241E+00  0.000E+00  0.000E+00  0.000E+00  1.29609E+02  '
               '1.159E+00  3.199E+00  6.119E-04  1.012E-03  1.968E-06\n',
               '-   1    4   40     1    40    2.4241E+00  1.0140E-03   '
               '2.4231E+00  0.000E+00  0.000E+00  0.000E+00  1.29309E+02  '
               '1.159E+00  3.199E+00  6.118E-04  1.012E-03  2.196E-06\n',
               '-   1    4   41     1    41    2.4231E+00  1.0137E-03   '
               '2.4220E+00  0.000E+00  0.000E+00  0.000E+00  1.29009E+02  '
               '1.159E+00  3.199E+00  6.117E-04  1.011E-03  2.423E-06\n',
               '-   1    4   42     1    42    2.4220E+00  1.0134E-03   '
               '2.4210E+00  0.000E+00  0.000E+00  0.000E+00  1.28708E+02  '
               '1.158E+00  3.198E+00  6.116E-04  1.011E-03  2.649E-06\n',
               '-   1    4   43     1    43    2.4210E+00  1.0131E-03   '
               '2.4200E+00  0.000E+00  0.000E+00  0.000E+00  1.28408E+02  '
               '1.158E+00  3.198E+00  6.116E-04  1.010E-03  2.873E-06\n',
               '-   1    4   44     1    44    2.4200E+00  1.0128E-03   '
               '2.4190E+00  0.000E+00  0.000E+00  0.000E+00  1.28108E+02  '
               '1.158E+00  3.198E+00  6.115E-04  1.010E-03  3.094E-06\n',
               '-   1    4   45     1    45    2.4190E+00  1.0125E-03   '
               '2.4180E+00  0.000E+00  0.000E+00  0.000E+00  1.27808E+02  '
               '1.158E+00  3.198E+00  6.114E-04  1.009E-03  3.314E-06\n',
               '-   1    4   46     1    46    2.4180E+00  1.0122E-03   '
               '2.4170E+00  0.000E+00  0.000E+00  0.000E+00  1.27507E+02  '
               '1.157E+00  3.197E+00  6.113E-04  1.009E-03  3.529E-06\n',
               '-   1    4   47     1    47    2.4170E+00  1.0120E-03   '
               '2.4160E+00  0.000E+00  0.000E+00  0.000E+00  1.27207E+02  '
               '1.157E+00  3.197E+00  6.112E-04  1.008E-03  3.742E-06\n',
               '-   1    4   48     1    48    2.4160E+00  1.0117E-03   '
               '2.4150E+00  0.000E+00  0.000E+00  0.000E+00  1.26907E+02  '
               '1.157E+00  3.197E+00  6.112E-04  1.008E-03  3.951E-06\n',
               '-   1    4   49     1    49    2.4150E+00  1.0114E-03   '
               '2.4140E+00  0.000E+00  0.000E+00  0.000E+00  1.26607E+02  '
               '1.157E+00  3.196E+00  6.111E-04  1.007E-03  4.155E-06\n',
               '-   1    4   50     1    50    2.4140E+00  1.0111E-03   '
               '2.4129E+00  0.000E+00  0.000E+00  0.000E+00  1.26306E+02  '
               '1.156E+00  3.196E+00  6.110E-04  1.007E-03  4.355E-06\n',
               '-   1    4   51     1    51    2.4129E+00  1.0108E-03   '
               '2.4119E+00  0.000E+00  0.000E+00  0.000E+00  1.26006E+02  '
               '1.156E+00  3.196E+00  6.109E-04  1.006E-03  4.548E-06\n',
               '-   1    4   52     1    52    2.4119E+00  1.0105E-03   '
               '2.4109E+00  0.000E+00  0.000E+00  0.000E+00  1.25706E+02  '
               '1.156E+00  3.195E+00  6.108E-04  1.006E-03  4.736E-06\n',
               '-   1    4   53     1    53    2.4109E+00  1.0102E-03   '
               '2.4099E+00  0.000E+00  0.000E+00  0.000E+00  1.25406E+02  '
               '1.156E+00  3.195E+00  6.107E-04  1.005E-03  4.917E-06\n',
               '-   1    4   54     1    54    2.4099E+00  1.0099E-03   '
               '2.4089E+00  0.000E+00  0.000E+00  0.000E+00  1.25105E+02  '
               '1.155E+00  3.195E+00  6.107E-04  1.005E-03  5.381E-06\n',
               '-   1    4   55     1    55    2.4089E+00  1.0096E-03   '
               '2.4079E+00  0.000E+00  0.000E+00  0.000E+00  1.24805E+02  '
               '1.155E+00  3.195E+00  6.106E-04  1.004E-03  5.640E-06\n',
               '-   1    4   56     1    56    2.4079E+00  1.0094E-03   '
               '2.4069E+00  0.000E+00  0.000E+00  0.000E+00  1.24505E+02  '
               '1.155E+00  3.194E+00  6.105E-04  1.004E-03  5.782E-06\n',
               '-   1    4   57     1    57    2.4069E+00  1.0091E-03   '
               '2.4059E+00  0.000E+00  0.000E+00  0.000E+00  1.24205E+02  '
               '1.155E+00  3.194E+00  6.104E-04  1.003E-03  5.916E-06\n',
               '-   1    4   58     1    58    2.4059E+00  1.0088E-03   '
               '2.4049E+00  0.000E+00  0.000E+00  0.000E+00  1.23904E+02  '
               '1.154E+00  3.194E+00  6.103E-04  1.003E-03  6.042E-06\n',
               '-   1    4   59     1    59    2.4049E+00  1.0085E-03   '
               '2.4039E+00  0.000E+00  0.000E+00  0.000E+00  1.23604E+02  '
               '1.154E+00  3.193E+00  6.103E-04  1.002E-03  6.158E-06\n',
               '-   1    4   60     1    60    2.4039E+00  1.0082E-03   '
               '2.4028E+00  0.000E+00  0.000E+00  0.000E+00  1.23304E+02  '
               '1.154E+00  3.193E+00  6.102E-04  1.002E-03  6.265E-06\n',
               '-   1    4   61     1    61    2.4028E+00  1.0079E-03   '
               '2.4018E+00  0.000E+00  0.000E+00  0.000E+00  1.23004E+02  '
               '1.154E+00  3.193E+00  6.101E-04  1.003E-03  5.354E-06\n',
               '-   1    4   62     1    62    2.4018E+00  1.0076E-03   '
               '2.4008E+00  0.000E+00  0.000E+00  0.000E+00  1.22703E+02  '
               '1.153E+00  3.192E+00  6.100E-04  1.002E-03  5.456E-06\n',
               '-   1    4   63     1    63    2.4008E+00  1.0073E-03   '
               '2.3998E+00  0.000E+00  0.000E+00  0.000E+00  1.22403E+02  '
               '1.153E+00  3.192E+00  6.099E-04  1.002E-03  5.545E-06\n',
               '-   1    4   64     1    64    2.3998E+00  1.0071E-03   '
               '2.3988E+00  0.000E+00  0.000E+00  0.000E+00  1.22103E+02  '
               '1.153E+00  3.192E+00  6.099E-04  1.001E-03  5.623E-06\n',
               '-   1    4   65     1    65    2.3988E+00  1.0068E-03   '
               '2.3978E+00  0.000E+00  0.000E+00  0.000E+00  1.21803E+02  '
               '1.153E+00  3.192E+00  6.098E-04  1.001E-03  5.687E-06\n',
               '-   1    4   66     1    66    2.3978E+00  1.0065E-03   '
               '2.3968E+00  0.000E+00  0.000E+00  0.000E+00  1.21502E+02  '
               '1.152E+00  3.191E+00  6.097E-04  1.001E-03  5.737E-06\n',
               '-   1    4   67     1    67    2.3968E+00  1.0062E-03   '
               '2.3958E+00  0.000E+00  0.000E+00  0.000E+00  1.21202E+02  '
               '1.152E+00  3.191E+00  6.096E-04  1.000E-03  5.775E-06\n',
               '-   1    4   68     1    68    2.3958E+00  1.0059E-03   '
               '2.3948E+00  0.000E+00  0.000E+00  0.000E+00  1.20902E+02  '
               '1.152E+00  3.191E+00  6.095E-04  1.000E-03  5.797E-06\n',
               '-   1    4   69     1    69    2.3948E+00  1.0056E-03   '
               '2.3938E+00  0.000E+00  0.000E+00  0.000E+00  1.20602E+02  '
               '1.152E+00  3.190E+00  6.094E-04  9.998E-04  5.805E-06\n',
               '-   1    4   70     1    70    2.3938E+00  1.0053E-03   '
               '2.3928E+00  0.000E+00  0.000E+00  0.000E+00  1.20301E+02  '
               '1.151E+00  3.190E+00  6.094E-04  9.995E-04  5.796E-06\n',
               '-   1    4   71     1    71    2.3928E+00  1.0050E-03   '
               '2.3918E+00  0.000E+00  0.000E+00  0.000E+00  1.20001E+02  '
               '1.151E+00  3.190E+00  6.093E-04  9.997E-04  5.388E-06\n',
               '-   1    4   72     1    72    2.3918E+00  1.0048E-03   '
               '2.3908E+00  0.000E+00  0.000E+00  0.000E+00  1.19701E+02  '
               '1.151E+00  3.190E+00  6.092E-04  1.000E-03  4.445E-06\n',
               '-   1    4   73     1    73    2.3908E+00  1.0045E-03   '
               '2.3898E+00  0.000E+00  0.000E+00  0.000E+00  1.19401E+02  '
               '1.151E+00  3.189E+00  6.091E-04  1.000E-03  4.391E-06\n',
               '-   1    4   74     1    74    2.3898E+00  1.0042E-03   '
               '2.3888E+00  0.000E+00  0.000E+00  0.000E+00  1.19100E+02  '
               '1.150E+00  3.189E+00  6.090E-04  9.999E-04  4.319E-06\n',
               '-   1    4   75     1    75    2.3888E+00  1.0039E-03   '
               '2.3878E+00  0.000E+00  0.000E+00  0.000E+00  1.18800E+02  '
               '1.150E+00  3.189E+00  6.090E-04  9.997E-04  4.226E-06\n',
               '-   1    4   76     1    76    2.3878E+00  1.0036E-03   '
               '2.3868E+00  0.000E+00  0.000E+00  0.000E+00  1.18500E+02  '
               '1.150E+00  3.188E+00  6.089E-04  9.995E-04  4.111E-06\n',
               '-   1    4   77     1    77    2.3868E+00  1.0033E-03   '
               '2.3857E+00  0.000E+00  0.000E+00  0.000E+00  1.18200E+02  '
               '1.150E+00  3.188E+00  6.088E-04  9.994E-04  3.976E-06\n',
               '-   1    4   78     1    78    2.3857E+00  1.0030E-03   '
               '2.3847E+00  0.000E+00  0.000E+00  0.000E+00  1.17899E+02  '
               '1.149E+00  3.188E+00  6.087E-04  9.999E-04  3.094E-06\n',
               '-   1    4   79     1    79    2.3847E+00  1.0028E-03   '
               '2.3837E+00  0.000E+00  0.000E+00  0.000E+00  1.17599E+02  '
               '1.149E+00  3.187E+00  6.086E-04  1.000E-03  2.664E-06\n',
               '-   1    4   80     1    80    2.3837E+00  1.0025E-03   '
               '2.3827E+00  0.000E+00  0.000E+00  0.000E+00  1.17299E+02  '
               '1.149E+00  3.187E+00  6.085E-04  1.000E-03  2.490E-06\n',
               '-   1    4   81     1    81    2.3827E+00  1.0022E-03   '
               '2.3817E+00  0.000E+00  0.000E+00  0.000E+00  1.16999E+02  '
               '1.149E+00  3.187E+00  6.085E-04  9.999E-04  2.299E-06\n',
               '-   1    4   82     1    82    2.3817E+00  1.0019E-03   '
               '2.3807E+00  0.000E+00  0.000E+00  0.000E+00  1.16698E+02  '
               '1.148E+00  3.187E+00  6.084E-04  1.003E-03 -1.219E-06\n',
               '-   1    4   83     1    83    2.3807E+00  1.0016E-03   '
               '2.3797E+00  0.000E+00  0.000E+00  0.000E+00  1.16398E+02  '
               '1.148E+00  3.186E+00  6.083E-04  1.003E-03 -1.860E-06\n',
               '-   1    4   84     1    84    2.3797E+00  1.0013E-03   '
               '2.3787E+00  0.000E+00  0.000E+00  0.000E+00  1.16098E+02  '
               '1.148E+00  3.186E+00  6.082E-04  1.004E-03 -2.850E-06\n',
               '-   1    4   85     1    85    2.3787E+00  1.0010E-03   '
               '2.3777E+00  0.000E+00  0.000E+00  0.000E+00  1.15798E+02  '
               '1.148E+00  3.186E+00  6.081E-04  1.004E-03 -3.122E-06\n',
               '-   1    4   86     1    86    2.3777E+00  1.0008E-03   '
               '2.3767E+00  0.000E+00  0.000E+00  0.000E+00  1.15497E+02  '
               '1.147E+00  3.185E+00  6.081E-04  1.004E-03 -3.406E-06\n',
               '-   1    4   87     1    87    2.3767E+00  1.0005E-03   '
               '2.3757E+00  0.000E+00  0.000E+00  0.000E+00  1.15197E+02  '
               '1.147E+00  3.185E+00  6.080E-04  1.005E-03 -4.133E-06\n',
               '-   1    4   88     1    88    2.3757E+00  1.0002E-03   '
               '2.3747E+00  0.000E+00  0.000E+00  0.000E+00  1.14897E+02  '
               '1.147E+00  3.185E+00  6.079E-04  1.005E-03 -4.923E-06\n',
               '-   1    4   89     1    89    2.3747E+00  9.9990E-04   '
               '2.3737E+00  0.000E+00  0.000E+00  0.000E+00  1.14597E+02  '
               '1.147E+00  3.184E+00  6.078E-04  1.005E-03 -5.064E-06\n',
               '-   1    4   90     1    90    2.3737E+00  9.9961E-04   '
               '2.3727E+00  0.000E+00  0.000E+00  0.000E+00  1.14296E+02  '
               '1.146E+00  3.184E+00  6.077E-04  1.005E-03 -5.489E-06\n',
               '-   1    4   91     1    91    2.3727E+00  9.9932E-04   '
               '2.3717E+00  0.000E+00  0.000E+00  0.000E+00  1.13996E+02  '
               '1.146E+00  3.184E+00  6.077E-04  1.005E-03 -5.924E-06\n',
               '-   1    4   92     1    92    2.3717E+00  9.9904E-04   '
               '2.3707E+00  0.000E+00  0.000E+00  0.000E+00  1.13696E+02  '
               '1.146E+00  3.184E+00  6.076E-04  1.013E-03 -1.362E-05\n',
               '-   1    4   93     1    93    2.3707E+00  9.9875E-04   '
               '2.3697E+00  0.000E+00  0.000E+00  0.000E+00  1.13396E+02  '
               '1.146E+00  3.183E+00  6.075E-04  1.013E-03 -1.412E-05\n',
               '-   1    4   94     1    94    2.3697E+00  9.9847E-04   '
               '2.3687E+00  0.000E+00  0.000E+00  0.000E+00  1.13095E+02  '
               '1.145E+00  3.183E+00  6.074E-04  1.013E-03 -1.463E-05\n',
               '-   1    4   95     1    95    2.3687E+00  9.9818E-04   '
               '2.3677E+00  0.000E+00  0.000E+00  0.000E+00  1.12795E+02  '
               '1.145E+00  3.183E+00  6.073E-04  1.013E-03 -1.517E-05\n',
               '-   1    4   96     1    96    2.3677E+00  9.9790E-04   '
               '2.3667E+00  0.000E+00  0.000E+00  0.000E+00  1.12495E+02  '
               '1.145E+00  3.182E+00  6.072E-04  1.014E-03 -1.574E-05\n',
               '-   1    4   97     1    97    2.3667E+00  9.9761E-04   '
               '2.3657E+00  0.000E+00  0.000E+00  0.000E+00  1.12195E+02  '
               '1.145E+00  3.182E+00  6.072E-04  1.014E-03 -1.634E-05\n',
               '-   1    4   98     1    98    2.3657E+00  9.9733E-04   '
               '2.3647E+00  0.000E+00  0.000E+00  0.000E+00  1.11894E+02  '
               '1.144E+00  3.182E+00  6.071E-04  1.014E-03 -1.698E-05\n',
               '-   1    4   99     1    99    2.3647E+00  9.9704E-04   '
               '2.3637E+00  0.000E+00  0.000E+00  0.000E+00  1.11594E+02  '
               '1.144E+00  3.181E+00  6.070E-04  1.015E-03 -1.766E-05\n',
               '-   1    4  100     1   100    2.3637E+00  9.9676E-04   '
               '2.3628E+00  0.000E+00  0.000E+00  0.000E+00  1.11294E+02  '
               '1.144E+00  3.181E+00  6.069E-04  1.015E-03 -1.836E-05\n',
               '-\n',
               '-\n',
               '-\n',
               '-1\n',
               '-  VOLUMETRIC BUDGET FOR UNSATURATED ZONE BENEATH STREAMS AT '
               'END OF TIME STEP    30 STRESS PERIOD  40\n',
               '-  '
               '------------------------------------------------------------------------------------------------\n',
               '-\n',
               '-    CUMULATIVE VOLUMES             L**3    RATES FOR THIS '
               'TIME STEP         L**3/T\n',
               '-    ------------------                     '
               '------------------------\n',
               '-\n',
               '-\n',
               '-          STREAM LOSS =     31204412.0000            STREAM '
               'LOSS =            0.1011\n',
               '-    CHANGE IN STORAGE =       353668.5625      CHANGE IN '
               'STORAGE =       -7.5194E-05\n',
               '-       RECHARGE TO GW =     30854554.0000         RECHARGE TO '
               'GW =            0.1012\n',
               '-\n',
               '-             TOTAL IN =     31204412.0000               TOTAL '
               'IN =            0.1012\n',
               '-\n',
               '-            TOTAL OUT =     31208222.0000              TOTAL '
               'OUT =            0.1012\n',
               '-\n',
               '-             IN - OUT =        -3810.0000               IN - '
               'OUT =        4.4703E-08\n',
               '-\n',
               '-  PERCENT DISCREPANCY =           -0.00      PERCENT '
               'DISCREPANCY =             0.00\n',
               '-\n',
               '-\n',
               '-\n',
               '-1\n',
               '-              HEAD IN LAYER   1 AT END OF TIME STEP  30 IN '
               'STRESS PERIOD   40\n',
               '-  '
               '---------------------------------------------------------------------------\n',
               '-\n',
               '-          1      2      3      4      5      6      7      '
               '8      9     10\n',
               '-         11     12     13     14     15     16     17     '
               '18     19     20\n',
               '-         21     22     23     24     25     26     27     '
               '28     29     30\n',
               '-         31     32     33     34     35     36     37     '
               '38     39     40\n',
               '-         41     42     43     44     45     46     47     '
               '48     49     50\n',
               '-         51     52     53     54     55     56     57     '
               '58     59     60\n',
               '-         61     62     63     64     65     66     67     '
               '68     69     70\n',
               '-         71     72     73     74     75     76     77     '
               '78     79     80\n',
               '-         81     82     83     84     85     86     87     '
               '88     89     90\n',
               '-         91     92     93     94     95     96     97     '
               '98     99    100\n',
               '- '
               '.........................................................................\n',
               '-   1   114.9  114.9  114.9  114.9  114.9  114.8  114.8  '
               '114.8  114.7  114.7\n',
               '-       114.6  114.6  114.5  114.5  114.4  114.3  114.2  '
               '114.1  114.0  113.9\n',
               '-       113.8  113.7  113.6  113.5  113.4  113.2  113.1  '
               '112.9  112.8  112.6\n',
               '-       112.5  112.3  112.1  111.9  111.7  111.5  111.3  '
               '111.1  110.9  110.6\n',
               '-       110.4  110.1  109.9  109.6  109.3  109.0  108.8  '
               '108.4  108.1  107.8\n',
               '-       107.5  107.1  106.8  106.4  106.0  105.7  105.3  '
               '104.8  104.4  104.0\n',
               '-       103.5  103.1  102.6  102.1  101.7  101.1  100.6  '
               '100.1   99.6   99.0\n',
               '-        98.4   97.8   97.2   96.6   96.0   95.3   94.7   '
               '94.0   93.3   92.6\n',
               '-        91.9   91.2   90.4   89.7   88.9   88.1   87.3   '
               '86.4   85.6   84.7\n',
               '-        83.8   82.9   82.0   81.0   80.1   79.1   78.1   '
               '77.1   76.1   75.0\n',
               '-   2   114.9  114.9  114.9  114.9  114.9  114.8  114.8  '
               '114.8  114.7  114.7\n',
               '-       114.6  114.6  114.5  114.5  114.4  114.3  114.2  '
               '114.1  114.0  113.9\n',
               '-       113.8  113.7  113.6  113.5  113.4  113.2  113.1  '
               '112.9  112.8  112.6\n',
               '-       112.5  112.3  112.1  111.9  111.7  111.5  111.3  '
               '111.1  110.9  110.6\n',
               '-       110.4  110.1  109.9  109.6  109.3  109.0  108.8  '
               '108.4  108.1  107.8\n',
               '-       107.5  107.1  106.8  106.4  106.0  105.7  105.3  '
               '104.8  104.4  104.0\n',
               '-       103.6  103.1  102.6  102.1  101.7  101.1  100.6  '
               '100.1   99.6   99.0\n',
               '-        98.4   97.8   97.2   96.6   96.0   95.3   94.7   '
               '94.0   93.3   92.6\n',
               '-        91.9   91.2   90.4   89.7   88.9   88.1   87.3   '
               '86.4   85.6   84.7\n',
               '-        83.8   82.9   82.0   81.1   80.1   79.1   78.1   '
               '77.1   76.1   75.0\n',
               '-   3   114.9  114.9  114.9  114.9  114.9  114.8  114.8  '
               '114.8  114.7  114.7\n',
               '-       114.6  114.6  114.5  114.5  114.4  114.3  114.2  '
               '114.1  114.0  113.9\n',
               '-       113.8  113.7  113.6  113.5  113.4  113.2  113.1  '
               '112.9  112.8  112.6\n',
               '-       112.5  112.3  112.1  111.9  111.7  111.5  111.3  '
               '111.1  110.9  110.6\n',
               '-       110.4  110.1  109.9  109.6  109.3  109.1  108.8  '
               '108.5  108.1  107.8\n',
               '-       107.5  107.1  106.8  106.4  106.0  105.7  105.3  '
               '104.8  104.4  104.0\n',
               '-       103.6  103.1  102.6  102.1  101.7  101.2  100.6  '
               '100.1   99.6   99.0\n',
               '-        98.4   97.8   97.2   96.6   96.0   95.4   94.7   '
               '94.0   93.3   92.6\n',
               '-        91.9   91.2   90.4   89.7   88.9   88.1   87.3   '
               '86.4   85.6   84.7\n',
               '-        83.8   82.9   82.0   81.1   80.1   79.1   78.1   '
               '77.1   76.1   75.0\n',
               '-   4   114.9  114.9  114.9  114.9  114.9  114.8  114.8  '
               '114.8  114.7  114.7\n',
               '-       114.6  114.6  114.5  114.5  114.4  114.3  114.2  '
               '114.1  114.0  114.0\n',
               '-       113.8  113.7  113.6  113.5  113.4  113.2  113.1  '
               '112.9  112.8  112.6\n',
               '-       112.5  112.3  112.1  111.9  111.7  111.5  111.3  '
               '111.1  110.9  110.6\n',
               '-       110.4  110.1  109.9  109.6  109.3  109.1  108.8  '
               '108.5  108.1  107.8\n',
               '-       107.5  107.1  106.8  106.4  106.0  105.7  105.3  '
               '104.8  104.4  104.0\n',
               '-       103.6  103.1  102.6  102.2  101.7  101.2  100.6  '
               '100.1   99.6   99.0\n',
               '-        98.4   97.8   97.2   96.6   96.0   95.4   94.7   '
               '94.0   93.3   92.6\n',
               '-        91.9   91.2   90.4   89.7   88.9   88.1   87.3   '
               '86.4   85.6   84.7\n',
               '-        83.8   82.9   82.0   81.1   80.1   79.1   78.1   '
               '77.1   76.1   75.0\n',
               '-   5   114.9  114.9  114.9  114.9  114.9  114.8  114.8  '
               '114.8  114.7  114.7\n',
               '-       114.6  114.6  114.5  114.5  114.4  114.3  114.2  '
               '114.1  114.0  113.9\n',
               '-       113.8  113.7  113.6  113.5  113.4  113.2  113.1  '
               '112.9  112.8  112.6\n',
               '-       112.5  112.3  112.1  111.9  111.7  111.5  111.3  '
               '111.1  110.9  110.6\n',
               '-       110.4  110.1  109.9  109.6  109.3  109.1  108.8  '
               '108.5  108.1  107.8\n',
               '-       107.5  107.1  106.8  106.4  106.0  105.7  105.3  '
               '104.8  104.4  104.0\n',
               '-       103.6  103.1  102.6  102.1  101.7  101.2  100.6  '
               '100.1   99.6   99.0\n',
               '-        98.4   97.8   97.2   96.6   96.0   95.4   94.7   '
               '94.0   93.3   92.6\n',
               '-        91.9   91.2   90.4   89.7   88.9   88.1   87.3   '
               '86.4   85.6   84.7\n',
               '-        83.8   82.9   82.0   81.1   80.1   79.1   78.1   '
               '77.1   76.1   75.0\n',
               '-   6   114.9  114.9  114.9  114.9  114.9  114.8  114.8  '
               '114.8  114.7  114.7\n',
               '-       114.6  114.6  114.5  114.5  114.4  114.3  114.2  '
               '114.1  114.0  113.9\n',
               '-       113.8  113.7  113.6  113.5  113.4  113.2  113.1  '
               '112.9  112.8  112.6\n',
               '-       112.5  112.3  112.1  111.9  111.7  111.5  111.3  '
               '111.1  110.9  110.6\n',
               '-       110.4  110.1  109.9  109.6  109.3  109.0  108.8  '
               '108.4  108.1  107.8\n',
               '-       107.5  107.1  106.8  106.4  106.0  105.7  105.3  '
               '104.8  104.4  104.0\n',
               '-       103.6  103.1  102.6  102.1  101.7  101.1  100.6  '
               '100.1   99.6   99.0\n',
               '-        98.4   97.8   97.2   96.6   96.0   95.3   94.7   '
               '94.0   93.3   92.6\n',
               '-        91.9   91.2   90.4   89.7   88.9   88.1   87.3   '
               '86.4   85.6   84.7\n',
               '-        83.8   82.9   82.0   81.1   80.1   79.1   78.1   '
               '77.1   76.1   75.0\n',
               '-   7   114.9  114.9  114.9  114.9  114.9  114.8  114.8  '
               '114.8  114.7  114.7\n',
               '-       114.6  114.6  114.5  114.5  114.4  114.3  114.2  '
               '114.1  114.0  113.9\n',
               '-       113.8  113.7  113.6  113.5  113.4  113.2  113.1  '
               '112.9  112.8  112.6\n',
               '-       112.5  112.3  112.1  111.9  111.7  111.5  111.3  '
               '111.1  110.9  110.6\n',
               '-       110.4  110.1  109.9  109.6  109.3  109.0  108.8  '
               '108.4  108.1  107.8\n',
               '-       107.5  107.1  106.8  106.4  106.0  105.7  105.3  '
               '104.8  104.4  104.0\n',
               '-       103.5  103.1  102.6  102.1  101.7  101.1  100.6  '
               '100.1   99.6   99.0\n',
               '-        98.4   97.8   97.2   96.6   96.0   95.3   94.7   '
               '94.0   93.3   92.6\n',
               '-        91.9   91.2   90.4   89.7   88.9   88.1   87.3   '
               '86.4   85.6   84.7\n',
               '-        83.8   82.9   82.0   81.0   80.1   79.1   78.1   '
               '77.1   76.1   75.0\n',
               '-1\n',
               '-  VOLUMETRIC BUDGET FOR ENTIRE MODEL AT END OF TIME STEP   '
               '30, STRESS PERIOD  40\n',
               '-  '
               '------------------------------------------------------------------------------\n',
               '-\n',
               '-     CUMULATIVE VOLUMES      L**3       RATES FOR THIS TIME '
               'STEP      L**3/T\n',
               '-     ------------------                 '
               '------------------------\n',
               '-\n',
               '-           IN:                                      IN:\n',
               '-           ---                                      ---\n',
               '-             STORAGE =    16565100.0000               STORAGE '
               '=       9.1511E-02\n',
               '-       CONSTANT HEAD =           0.0000         CONSTANT HEAD '
               '=           0.0000\n',
               '-     HEAD DEP BOUNDS =           0.0000       HEAD DEP BOUNDS '
               '=           0.0000\n',
               '-      STREAM LEAKAGE =    30854408.0000        STREAM LEAKAGE '
               '=           0.1012\n',
               '-\n',
               '-            TOTAL IN =    47419508.0000              TOTAL IN '
               '=           0.1927\n',
               '-\n',
               '-          OUT:                                     OUT:\n',
               '-          ----                                     ----\n',
               '-             STORAGE =    15958064.0000               STORAGE '
               '=           0.0000\n',
               '-       CONSTANT HEAD =           0.0000         CONSTANT HEAD '
               '=           0.0000\n',
               '-     HEAD DEP BOUNDS =    31461140.0000       HEAD DEP BOUNDS '
               '=           0.1925\n',
               '-      STREAM LEAKAGE =           0.0000        STREAM LEAKAGE '
               '=           0.0000\n',
               '-\n',
               '-           TOTAL OUT =    47419204.0000             TOTAL OUT '
               '=           0.1925\n',
               '-\n',
               '-            IN - OUT =         304.0000              IN - OUT '
               '=       1.3416E-04\n',
               '-\n',
               '- PERCENT DISCREPANCY =           0.00     PERCENT DISCREPANCY '
               '=           0.07\n',
               '-\n',
               '-\n',
               '-\n',
               '-\n',
               '-\n',
               '-\n',
               '-         TIME SUMMARY AT END OF TIME STEP   30 IN STRESS '
               'PERIOD   40\n',
               '-                    SECONDS     MINUTES      HOURS       '
               'DAYS        YEARS\n',
               '-                    '
               '-----------------------------------------------------------\n',
               '-   TIME STEP LENGTH 2.49961E+05  4166.0      69.434      '
               '2.8931     7.92080E-03\n',
               '- STRESS PERIOD TIME 2.59200E+06  43200.      720.00      '
               '30.000     8.21355E-02\n',
               '-         TOTAL TIME 1.03680E+08 1.72800E+06  28800.      '
               '1200.0      3.2854    \n',
               '-1\n',
               '-1\n',
               '-                            STRESS PERIOD NO.   41, LENGTH '
               '=   2592000.    \n',
               '-                            '
               '-----------------------------------------------\n',
               '-\n',
               '-                              NUMBER OF TIME STEPS =    30\n',
               '-\n',
               '-                               MULTIPLIER FOR DELT =     '
               '1.100\n',
               '-\n',
               '-                            INITIAL TIME STEP SIZE =   '
               '15757.40    \n',
               '-\n',
               '- REUSING NON-PARAMETER GHB CELLS FROM LAST STRESS PERIOD\n',
               '-\n',
               '-      7 GHB CELLS\n',
               '- \n',
               '- SOLVING FOR HEAD \n',
               '-\n',
               '- NO OUTPUT CONTROL FOR STRESS PERIOD   41   TIME STEP    1\n',
               '- \n',
               '- SOLVING FOR HEAD \n',
               '-\n',
               '- NO OUTPUT CONTROL FOR STRESS PERIOD   41   TIME STEP    2\n',
               '- \n',
               '- SOLVING FOR HEAD \n',
               '-\n',
               '- NO OUTPUT CONTROL FOR STRESS PERIOD   41   TIME STEP    3\n',
               '- \n',
               '- SOLVING FOR HEAD \n',
               '-\n',
               '- NO OUTPUT CONTROL FOR STRESS PERIOD   41   TIME STEP    4\n',
               '- \n',
               '- SOLVING FOR HEAD \n',
               '-\n',
               '- NO OUTPUT CONTROL FOR STRESS PERIOD   41   TIME STEP    5\n',
               '- \n',
               '- SOLVING FOR HEAD \n',
               '-\n',
               '- NO OUTPUT CONTROL FOR STRESS PERIOD   41   TIME STEP    6\n',
               '- \n',
               '- SOLVING FOR HEAD \n',
               '-\n',
               '- NO OUTPUT CONTROL FOR STRESS PERIOD   41   TIME STEP    7\n',
               '- \n',
               '- SOLVING FOR HEAD \n',
               '-\n',
               '- NO OUTPUT CONTROL FOR STRESS PERIOD   41   TIME STEP    8\n',
               '- \n',
               '- SOLVING FOR HEAD \n',
               '-\n',
               '- NO OUTPUT CONTROL FOR STRESS PERIOD   41   TIME STEP    9\n',
               '- \n',
               '- SOLVING FOR HEAD \n',
               '-\n',
               '- NO OUTPUT CONTROL FOR STRESS PERIOD   41   TIME STEP   10\n',
               '- \n',
               '- SOLVING FOR HEAD \n',
               '-\n',
               '- NO OUTPUT CONTROL FOR STRESS PERIOD   41   TIME STEP   11\n',
               '- \n',
               '- SOLVING FOR HEAD \n',
               '-\n',
               '- NO OUTPUT CONTROL FOR STRESS PERIOD   41   TIME STEP   12\n',
               '- \n',
               '- SOLVING FOR HEAD \n',
               '-\n',
               '- NO OUTPUT CONTROL FOR STRESS PERIOD   41   TIME STEP   13\n',
               '- \n',
               '- SOLVING FOR HEAD \n',
               '-\n',
               '- NO OUTPUT CONTROL FOR STRESS PERIOD   41   TIME STEP   14\n',
               '- \n',
               '- SOLVING FOR HEAD \n',
               '-\n',
               '- NO OUTPUT CONTROL FOR STRESS PERIOD   41   TIME STEP   15\n',
               '- \n',
               '- SOLVING FOR HEAD \n',
               '-\n',
               '- NO OUTPUT CONTROL FOR STRESS PERIOD   41   TIME STEP   16\n',
               '- \n',
               '- SOLVING FOR HEAD \n',
               '-\n',
               '- NO OUTPUT CONTROL FOR STRESS PERIOD   41   TIME STEP   17\n',
               '- \n',
               '- SOLVING FOR HEAD \n',
               '-\n',
               '- NO OUTPUT CONTROL FOR STRESS PERIOD   41   TIME STEP   18\n',
               '- \n',
               '- SOLVING FOR HEAD \n',
               '-\n',
               '- NO OUTPUT CONTROL FOR STRESS PERIOD   41   TIME STEP   19\n',
               '- \n',
               '- SOLVING FOR HEAD \n',
               '-\n',
               '- NO OUTPUT CONTROL FOR STRESS PERIOD   41   TIME STEP   20\n',
               '- \n',
               '- SOLVING FOR HEAD \n',
               '-\n',
               '- NO OUTPUT CONTROL FOR STRESS PERIOD   41   TIME STEP   21\n',
               '- \n',
               '- SOLVING FOR HEAD \n',
               '-\n',
               '- NO OUTPUT CONTROL FOR STRESS PERIOD   41   TIME STEP   22\n',
               '- \n',
               '- SOLVING FOR HEAD \n',
               '-\n',
               '- NO OUTPUT CONTROL FOR STRESS PERIOD   41   TIME STEP   23\n',
               '- \n',
               '- SOLVING FOR HEAD \n',
               '-\n',
               '- NO OUTPUT CONTROL FOR STRESS PERIOD   41   TIME STEP   24\n',
               '- \n',
               '- SOLVING FOR HEAD \n',
               '-\n',
               '- NO OUTPUT CONTROL FOR STRESS PERIOD   41   TIME STEP   25\n',
               '- \n',
               '- SOLVING FOR HEAD \n',
               '-\n',
               '- NO OUTPUT CONTROL FOR STRESS PERIOD   41   TIME STEP   26\n',
               '- \n',
               '- SOLVING FOR HEAD \n',
               '-\n',
               '- NO OUTPUT CONTROL FOR STRESS PERIOD   41   TIME STEP   27\n',
               '- \n',
               '- SOLVING FOR HEAD \n',
               '-\n',
               '- NO OUTPUT CONTROL FOR STRESS PERIOD   41   TIME STEP   28\n',
               '- \n',
               '- SOLVING FOR HEAD \n',
               '-\n',
               '- NO OUTPUT CONTROL FOR STRESS PERIOD   41   TIME STEP   29\n',
               '- \n',
               '- SOLVING FOR HEAD \n',
               '-\n',
               '- NO OUTPUT CONTROL FOR STRESS PERIOD   41   TIME STEP   30\n',
               '-\n',
               '-\n',
               '-\n',
               '- STREAM LISTING     PERIOD     41   STEP       30\n',
               '-\n',
               '- LAYER ROW COL. STREAM  RCH.   FLOW INTO    STREAM     FLOW '
               'OUT OF   OVRLND.    DIRECT     STREAM      STREAM      '
               'STREAM     STREAM  STREAMBED   FLOW TO   CHNG. UNSAT. \n',
               '-                SEG.NO.  NO.   STRM. RCH.    LOSS       STRM. '
               'RCH.   RUNOFF     PRECIP       ET         HEAD        '
               'DEPTH      WIDTH  CONDCTNC.   WAT. TAB.\n',
               '-\n',
               '-   1    4    1     1     1    1.9697E+01  5.1643E-03   '
               '1.9692E+01  0.000E+00  0.000E+00  0.000E+00  1.43221E+02  '
               '3.371E+00  5.846E+00  1.334E-03  4.376E-03  7.881E-04\n',
               '-   1    4    2     1     2    1.9692E+01  5.1632E-03   '
               '1.9687E+01  0.000E+00  0.000E+00  0.000E+00  1.42921E+02  '
               '3.371E+00  5.845E+00  1.334E-03  4.376E-03  7.873E-04\n',
               '-   1    4    3     1     3    1.9687E+01  5.1621E-03   '
               '1.9682E+01  0.000E+00  0.000E+00  0.000E+00  1.42620E+02  '
               '3.370E+00  5.845E+00  1.333E-03  4.376E-03  7.864E-04\n',
               '-   1    4    4     1     4    1.9682E+01  5.1610E-03   '
               '1.9677E+01  0.000E+00  0.000E+00  0.000E+00  1.42320E+02  '
               '3.370E+00  5.844E+00  1.333E-03  4.458E-03  7.027E-04\n',
               '-   1    4    5     1     5    1.9677E+01  5.1599E-03   '
               '1.9671E+01  0.000E+00  0.000E+00  0.000E+00  1.42019E+02  '
               '3.369E+00  5.844E+00  1.333E-03  4.554E-03  6.058E-04\n',
               '-   1    4    6     1     6    1.9671E+01  5.1587E-03   '
               '1.9666E+01  0.000E+00  0.000E+00  0.000E+00  1.41719E+02  '
               '3.369E+00  5.843E+00  1.333E-03  4.648E-03  5.106E-04\n',
               '-   1    4    7     1     7    1.9666E+01  5.1576E-03   '
               '1.9661E+01  0.000E+00  0.000E+00  0.000E+00  1.41419E+02  '
               '3.369E+00  5.843E+00  1.333E-03  4.740E-03  4.172E-04\n',
               '-   1    4    8     1     8    1.9661E+01  5.1565E-03   '
               '1.9656E+01  0.000E+00  0.000E+00  0.000E+00  1.41118E+02  '
               '3.368E+00  5.842E+00  1.333E-03  4.831E-03  3.255E-04\n',
               '-   1    4    9     1     9    1.9656E+01  5.1554E-03   '
               '1.9651E+01  0.000E+00  0.000E+00  0.000E+00  1.40818E+02  '
               '3.368E+00  5.842E+00  1.333E-03  4.920E-03  2.358E-04\n',
               '-   1    4   10     1    10    1.9651E+01  5.1543E-03   '
               '1.9646E+01  0.000E+00  0.000E+00  0.000E+00  1.40517E+02  '
               '3.367E+00  5.841E+00  1.332E-03  5.006E-03  1.480E-04\n',
               '-   1    4   11     1    11    1.9646E+01  5.1531E-03   '
               '1.9640E+01  0.000E+00  0.000E+00  0.000E+00  1.40217E+02  '
               '3.367E+00  5.841E+00  1.332E-03  5.091E-03  6.208E-05\n',
               '-   1    4   12     1    12    1.9640E+01  5.1520E-03   '
               '1.9635E+01  0.000E+00  0.000E+00  0.000E+00  1.39916E+02  '
               '3.366E+00  5.840E+00  1.332E-03  5.174E-03 -2.170E-05\n',
               '-   1    4   13     1    13    1.9635E+01  5.1509E-03   '
               '1.9630E+01  0.000E+00  0.000E+00  0.000E+00  1.39616E+02  '
               '3.366E+00  5.840E+00  1.332E-03  5.213E-03 -6.188E-05\n',
               '-   1    4   14     1    14    1.9630E+01  5.1498E-03   '
               '1.9625E+01  0.000E+00  0.000E+00  0.000E+00  1.39316E+02  '
               '3.366E+00  5.839E+00  1.332E-03  5.211E-03 -6.158E-05\n',
               '-   1    4   15     1    15    1.9625E+01  5.1487E-03   '
               '1.9620E+01  0.000E+00  0.000E+00  0.000E+00  1.39015E+02  '
               '3.365E+00  5.839E+00  1.332E-03  5.210E-03 -6.109E-05\n',
               '-   1    4   16     1    16    1.9620E+01  5.1475E-03   '
               '1.9615E+01  0.000E+00  0.000E+00  0.000E+00  1.38715E+02  '
               '3.365E+00  5.838E+00  1.332E-03  5.208E-03 -6.051E-05\n',
               '-   1    4   17     1    17    1.9615E+01  5.1464E-03   '
               '1.9610E+01  0.000E+00  0.000E+00  0.000E+00  1.38414E+02  '
               '3.364E+00  5.838E+00  1.331E-03  5.206E-03 -5.991E-05\n',
               '-   1    4   18     1    18    1.9610E+01  5.1453E-03   '
               '1.9604E+01  0.000E+00  0.000E+00  0.000E+00  1.38114E+02  '
               '3.364E+00  5.837E+00  1.331E-03  5.205E-03 -5.931E-05\n',
               '-   1    4   19     1    19    1.9604E+01  5.1442E-03   '
               '1.9599E+01  0.000E+00  0.000E+00  0.000E+00  1.37813E+02  '
               '3.363E+00  5.837E+00  1.331E-03  5.203E-03 -5.869E-05\n',
               '-   1    4   20     1    20    1.9599E+01  5.1431E-03   '
               '1.9594E+01  0.000E+00  0.000E+00  0.000E+00  1.37513E+02  '
               '3.363E+00  5.836E+00  1.331E-03  5.201E-03 -5.807E-05\n',
               '-   1    4   21     1    21    1.9594E+01  5.1420E-03   '
               '1.9589E+01  0.000E+00  0.000E+00  0.000E+00  1.37212E+02  '
               '3.362E+00  5.835E+00  1.331E-03  5.199E-03 -5.744E-05\n',
               '-   1    4   22     1    22    1.9589E+01  5.1408E-03   '
               '1.9584E+01  0.000E+00  0.000E+00  0.000E+00  1.36912E+02  '
               '3.362E+00  5.835E+00  1.331E-03  5.198E-03 -5.680E-05\n',
               '-   1    4   23     1    23    1.9584E+01  5.1397E-03   '
               '1.9579E+01  0.000E+00  0.000E+00  0.000E+00  1.36612E+02  '
               '3.362E+00  5.834E+00  1.331E-03  5.196E-03 -5.617E-05\n',
               '-   1    4   24     1    24    1.9579E+01  5.1386E-03   '
               '1.9574E+01  0.000E+00  0.000E+00  0.000E+00  1.36311E+02  '
               '3.361E+00  5.834E+00  1.330E-03  5.194E-03 -5.578E-05\n',
               '-   1    4   25     1    25    1.9574E+01  5.1375E-03   '
               '1.9568E+01  0.000E+00  0.000E+00  0.000E+00  1.36011E+02  '
               '3.361E+00  5.833E+00  1.330E-03  5.193E-03 -5.543E-05\n',
               '-   1    4   26     1    26    1.9568E+01  5.1364E-03   '
               '1.9563E+01  0.000E+00  0.000E+00  0.000E+00  1.35710E+02  '
               '3.360E+00  5.833E+00  1.330E-03  5.191E-03 -5.508E-05\n',
               '-   1    4   27     1    27    1.9563E+01  5.1353E-03   '
               '1.9558E+01  0.000E+00  0.000E+00  0.000E+00  1.35410E+02  '
               '3.360E+00  5.832E+00  1.330E-03  5.190E-03 -5.469E-05\n',
               '-   1    4   28     1    28    1.9558E+01  5.1342E-03   '
               '1.9553E+01  0.000E+00  0.000E+00  0.000E+00  1.35109E+02  '
               '3.359E+00  5.832E+00  1.330E-03  5.188E-03 -5.429E-05\n',
               '-   1    4   29     1    29    1.9553E+01  5.1330E-03   '
               '1.9548E+01  0.000E+00  0.000E+00  0.000E+00  1.34809E+02  '
               '3.359E+00  5.831E+00  1.330E-03  5.187E-03 -5.388E-05\n',
               '-   1    4   30     1    30    1.9548E+01  5.1319E-03   '
               '1.9543E+01  0.000E+00  0.000E+00  0.000E+00  1.34509E+02  '
               '3.359E+00  5.831E+00  1.330E-03  5.185E-03 -5.345E-05\n',
               '-   1    4   31     1    31    1.9543E+01  5.1308E-03   '
               '1.9538E+01  0.000E+00  0.000E+00  0.000E+00  1.34208E+02  '
               '3.358E+00  5.830E+00  1.330E-03  5.184E-03 -5.302E-05\n',
               '-   1    4   32     1    32    1.9538E+01  5.1297E-03   '
               '1.9532E+01  0.000E+00  0.000E+00  0.000E+00  1.33908E+02  '
               '3.358E+00  5.830E+00  1.329E-03  5.182E-03 -5.259E-05\n',
               '-   1    4   33     1    33    1.9532E+01  5.1286E-03   '
               '1.9527E+01  0.000E+00  0.000E+00  0.000E+00  1.33607E+02  '
               '3.357E+00  5.829E+00  1.329E-03  5.181E-03 -5.216E-05\n',
               '-   1    4   34     1    34    1.9527E+01  5.1275E-03   '
               '1.9522E+01  0.000E+00  0.000E+00  0.000E+00  1.33307E+02  '
               '3.357E+00  5.829E+00  1.329E-03  5.179E-03 -5.173E-05\n',
               '-   1    4   35     1    35    1.9522E+01  5.1264E-03   '
               '1.9517E+01  0.000E+00  0.000E+00  0.000E+00  1.33006E+02  '
               '3.356E+00  5.828E+00  1.329E-03  5.178E-03 -5.129E-05\n',
               '-   1    4   36     1    36    1.9517E+01  5.1252E-03   '
               '1.9512E+01  0.000E+00  0.000E+00  0.000E+00  1.32706E+02  '
               '3.356E+00  5.828E+00  1.329E-03  5.176E-03 -5.085E-05\n',
               '-   1    4   37     1    37    1.9512E+01  5.1241E-03   '
               '1.9507E+01  0.000E+00  0.000E+00  0.000E+00  1.32406E+02  '
               '3.356E+00  5.827E+00  1.329E-03  5.175E-03 -5.041E-05\n',
               '-   1    4   38     1    38    1.9507E+01  5.1230E-03   '
               '1.9502E+01  0.000E+00  0.000E+00  0.000E+00  1.32105E+02  '
               '3.355E+00  5.827E+00  1.329E-03  5.173E-03 -4.996E-05\n',
               '-   1    4   39     1    39    1.9502E+01  5.1219E-03   '
               '1.9497E+01  0.000E+00  0.000E+00  0.000E+00  1.31805E+02  '
               '3.355E+00  5.826E+00  1.328E-03  5.171E-03 -4.952E-05\n',
               '-   1    4   40     1    40    1.9497E+01  5.1208E-03   '
               '1.9491E+01  0.000E+00  0.000E+00  0.000E+00  1.31504E+02  '
               '3.354E+00  5.826E+00  1.328E-03  5.170E-03 -4.908E-05\n',
               '-   1    4   41     1    41    1.9491E+01  5.1197E-03   '
               '1.9486E+01  0.000E+00  0.000E+00  0.000E+00  1.31204E+02  '
               '3.354E+00  5.825E+00  1.328E-03  5.168E-03 -4.865E-05\n',
               '-   1    4   42     1    42    1.9486E+01  5.1186E-03   '
               '1.9481E+01  0.000E+00  0.000E+00  0.000E+00  1.30903E+02  '
               '3.353E+00  5.825E+00  1.328E-03  5.167E-03 -4.823E-05\n',
               '-   1    4   43     1    43    1.9481E+01  5.1175E-03   '
               '1.9476E+01  0.000E+00  0.000E+00  0.000E+00  1.30603E+02  '
               '3.353E+00  5.824E+00  1.328E-03  5.165E-03 -4.781E-05\n',
               '-   1    4   44     1    44    1.9476E+01  5.1163E-03   '
               '1.9471E+01  0.000E+00  0.000E+00  0.000E+00  1.30303E+02  '
               '3.353E+00  5.824E+00  1.328E-03  5.164E-03 -4.740E-05\n',
               '-   1    4   45     1    45    1.9471E+01  5.1152E-03   '
               '1.9466E+01  0.000E+00  0.000E+00  0.000E+00  1.30002E+02  '
               '3.352E+00  5.823E+00  1.328E-03  5.162E-03 -4.699E-05\n',
               '-   1    4   46     1    46    1.9466E+01  5.1141E-03   '
               '1.9461E+01  0.000E+00  0.000E+00  0.000E+00  1.29702E+02  '
               '3.352E+00  5.823E+00  1.327E-03  5.161E-03 -4.659E-05\n',
               '-   1    4   47     1    47    1.9461E+01  5.1130E-03   '
               '1.9456E+01  0.000E+00  0.000E+00  0.000E+00  1.29401E+02  '
               '3.351E+00  5.822E+00  1.327E-03  5.159E-03 -4.620E-05\n',
               '-   1    4   48     1    48    1.9456E+01  5.1119E-03   '
               '1.9451E+01  0.000E+00  0.000E+00  0.000E+00  1.29101E+02  '
               '3.351E+00  5.822E+00  1.327E-03  5.158E-03 -4.581E-05\n',
               '-   1    4   49     1    49    1.9451E+01  5.1108E-03   '
               '1.9445E+01  0.000E+00  0.000E+00  0.000E+00  1.28800E+02  '
               '3.350E+00  5.821E+00  1.327E-03  5.156E-03 -4.543E-05\n',
               '-   1    4   50     1    50    1.9445E+01  5.1097E-03   '
               '1.9440E+01  0.000E+00  0.000E+00  0.000E+00  1.28500E+02  '
               '3.350E+00  5.821E+00  1.327E-03  5.155E-03 -4.506E-05\n',
               '-   1    4   51     1    51    1.9440E+01  5.1086E-03   '
               '1.9435E+01  0.000E+00  0.000E+00  0.000E+00  1.28200E+02  '
               '3.350E+00  5.820E+00  1.327E-03  5.153E-03 -4.471E-05\n',
               '-   1    4   52     1    52    1.9435E+01  5.1075E-03   '
               '1.9430E+01  0.000E+00  0.000E+00  0.000E+00  1.27899E+02  '
               '3.349E+00  5.820E+00  1.327E-03  5.152E-03 -4.438E-05\n',
               '-   1    4   53     1    53    1.9430E+01  5.1063E-03   '
               '1.9425E+01  0.000E+00  0.000E+00  0.000E+00  1.27599E+02  '
               '3.349E+00  5.819E+00  1.326E-03  5.150E-03 -4.407E-05\n',
               '-   1    4   54     1    54    1.9425E+01  5.1052E-03   '
               '1.9420E+01  0.000E+00  0.000E+00  0.000E+00  1.27298E+02  '
               '3.348E+00  5.818E+00  1.326E-03  5.149E-03 -4.377E-05\n',
               '-   1    4   55     1    55    1.9420E+01  5.1041E-03   '
               '1.9415E+01  0.000E+00  0.000E+00  0.000E+00  1.26998E+02  '
               '3.348E+00  5.818E+00  1.326E-03  5.148E-03 -4.350E-05\n',
               '-   1    4   56     1    56    1.9415E+01  5.1030E-03   '
               '1.9410E+01  0.000E+00  0.000E+00  0.000E+00  1.26697E+02  '
               '3.347E+00  5.817E+00  1.326E-03  5.146E-03 -4.325E-05\n',
               '-   1    4   57     1    57    1.9410E+01  5.1019E-03   '
               '1.9405E+01  0.000E+00  0.000E+00  0.000E+00  1.26397E+02  '
               '3.347E+00  5.817E+00  1.326E-03  5.145E-03 -4.302E-05\n',
               '-   1    4   58     1    58    1.9405E+01  5.1008E-03   '
               '1.9399E+01  0.000E+00  0.000E+00  0.000E+00  1.26097E+02  '
               '3.347E+00  5.816E+00  1.326E-03  5.144E-03 -4.281E-05\n',
               '-   1    4   59     1    59    1.9399E+01  5.0997E-03   '
               '1.9394E+01  0.000E+00  0.000E+00  0.000E+00  1.25796E+02  '
               '3.346E+00  5.816E+00  1.326E-03  5.142E-03 -4.262E-05\n',
               '-   1    4   60     1    60    1.9394E+01  5.0986E-03   '
               '1.9389E+01  0.000E+00  0.000E+00  0.000E+00  1.25496E+02  '
               '3.346E+00  5.815E+00  1.325E-03  5.141E-03 -4.246E-05\n',
               '-   1    4   61     1    61    1.9389E+01  5.0975E-03   '
               '1.9384E+01  0.000E+00  0.000E+00  0.000E+00  1.25195E+02  '
               '3.345E+00  5.815E+00  1.325E-03  5.140E-03 -4.233E-05\n',
               '-   1    4   62     1    62    1.9384E+01  5.0964E-03   '
               '1.9379E+01  0.000E+00  0.000E+00  0.000E+00  1.24895E+02  '
               '3.345E+00  5.814E+00  1.325E-03  5.139E-03 -4.221E-05\n',
               '-   1    4   63     1    63    1.9379E+01  5.0953E-03   '
               '1.9374E+01  0.000E+00  0.000E+00  0.000E+00  1.24594E+02  '
               '3.344E+00  5.814E+00  1.325E-03  5.137E-03 -4.211E-05\n',
               '-   1    4   64     1    64    1.9374E+01  5.0941E-03   '
               '1.9369E+01  0.000E+00  0.000E+00  0.000E+00  1.24294E+02  '
               '3.344E+00  5.813E+00  1.325E-03  5.136E-03 -4.203E-05\n',
               '-   1    4   65     1    65    1.9369E+01  5.0930E-03   '
               '1.9364E+01  0.000E+00  0.000E+00  0.000E+00  1.23994E+02  '
               '3.344E+00  5.813E+00  1.325E-03  5.135E-03 -4.199E-05\n',
               '-   1    4   66     1    66    1.9364E+01  5.0919E-03   '
               '1.9359E+01  0.000E+00  0.000E+00  0.000E+00  1.23693E+02  '
               '3.343E+00  5.812E+00  1.325E-03  5.134E-03 -4.233E-05\n',
               '-   1    4   67     1    67    1.9359E+01  5.0908E-03   '
               '1.9354E+01  0.000E+00  0.000E+00  0.000E+00  1.23393E+02  '
               '3.343E+00  5.812E+00  1.324E-03  5.134E-03 -4.280E-05\n',
               '-   1    4   68     1    68    1.9354E+01  5.0897E-03   '
               '1.9349E+01  0.000E+00  0.000E+00  0.000E+00  1.23092E+02  '
               '3.342E+00  5.811E+00  1.324E-03  5.133E-03 -4.332E-05\n',
               '-   1    4   69     1    69    1.9349E+01  5.0886E-03   '
               '1.9343E+01  0.000E+00  0.000E+00  0.000E+00  1.22792E+02  '
               '3.342E+00  5.811E+00  1.324E-03  5.133E-03 -4.389E-05\n',
               '-   1    4   70     1    70    1.9343E+01  5.0875E-03   '
               '1.9338E+01  0.000E+00  0.000E+00  0.000E+00  1.22491E+02  '
               '3.341E+00  5.810E+00  1.324E-03  5.132E-03 -4.450E-05\n',
               '-   1    4   71     1    71    1.9338E+01  5.0864E-03   '
               '1.9333E+01  0.000E+00  0.000E+00  0.000E+00  1.22191E+02  '
               '3.341E+00  5.810E+00  1.324E-03  5.132E-03 -4.512E-05\n',
               '-   1    4   72     1    72    1.9333E+01  5.0853E-03   '
               '1.9328E+01  0.000E+00  0.000E+00  0.000E+00  1.21891E+02  '
               '3.341E+00  5.809E+00  1.324E-03  5.131E-03 -4.566E-05\n',
               '-   1    4   73     1    73    1.9328E+01  5.0842E-03   '
               '1.9323E+01  0.000E+00  0.000E+00  0.000E+00  1.21590E+02  '
               '3.340E+00  5.809E+00  1.324E-03  5.127E-03 -4.272E-05\n',
               '-   1    4   74     1    74    1.9323E+01  5.0831E-03   '
               '1.9318E+01  0.000E+00  0.000E+00  0.000E+00  1.21290E+02  '
               '3.340E+00  5.808E+00  1.323E-03  5.013E-03  7.042E-05\n',
               '-   1    4   75     1    75    1.9318E+01  5.0820E-03   '
               '1.9313E+01  0.000E+00  0.000E+00  0.000E+00  1.20989E+02  '
               '3.339E+00  5.808E+00  1.323E-03  4.894E-03  1.879E-04\n',
               '-   1    4   76     1    76    1.9313E+01  5.0809E-03   '
               '1.9308E+01  0.000E+00  0.000E+00  0.000E+00  1.20689E+02  '
               '3.339E+00  5.807E+00  1.323E-03  4.771E-03  3.095E-04\n',
               '-   1    4   77     1    77    1.9308E+01  5.0798E-03   '
               '1.9303E+01  0.000E+00  0.000E+00  0.000E+00  1.20388E+02  '
               '3.338E+00  5.807E+00  1.323E-03  4.643E-03  4.367E-04\n',
               '-   1    4   78     1    78    1.9303E+01  5.0787E-03   '
               '1.9298E+01  0.000E+00  0.000E+00  0.000E+00  1.20088E+02  '
               '3.338E+00  5.806E+00  1.323E-03  4.510E-03  5.683E-04\n',
               '-   1    4   79     1    79    1.9298E+01  5.0776E-03   '
               '1.9293E+01  0.000E+00  0.000E+00  0.000E+00  1.19788E+02  '
               '3.338E+00  5.806E+00  1.323E-03  4.373E-03  7.043E-04\n',
               '-   1    4   80     1    80    1.9293E+01  5.0764E-03   '
               '1.9288E+01  0.000E+00  0.000E+00  0.000E+00  1.19487E+02  '
               '3.337E+00  5.805E+00  1.323E-03  4.329E-03  7.473E-04\n',
               '-   1    4   81     1    81    1.9288E+01  5.0753E-03   '
               '1.9282E+01  0.000E+00  0.000E+00  0.000E+00  1.19187E+02  '
               '3.337E+00  5.805E+00  1.322E-03  4.329E-03  7.466E-04\n',
               '-   1    4   82     1    82    1.9282E+01  5.0742E-03   '
               '1.9277E+01  0.000E+00  0.000E+00  0.000E+00  1.18886E+02  '
               '3.336E+00  5.804E+00  1.322E-03  4.329E-03  7.457E-04\n',
               '-   1    4   83     1    83    1.9277E+01  5.0731E-03   '
               '1.9272E+01  0.000E+00  0.000E+00  0.000E+00  1.18586E+02  '
               '3.336E+00  5.804E+00  1.322E-03  4.328E-03  7.447E-04\n',
               '-   1    4   84     1    84    1.9272E+01  5.0720E-03   '
               '1.9267E+01  0.000E+00  0.000E+00  0.000E+00  1.18285E+02  '
               '3.335E+00  5.803E+00  1.322E-03  4.328E-03  7.437E-04\n',
               '-   1    4   85     1    85    1.9267E+01  5.0709E-03   '
               '1.9262E+01  0.000E+00  0.000E+00  0.000E+00  1.17985E+02  '
               '3.335E+00  5.803E+00  1.322E-03  4.333E-03  7.381E-04\n',
               '-   1    4   86     1    86    1.9262E+01  5.0698E-03   '
               '1.9257E+01  0.000E+00  0.000E+00  0.000E+00  1.17685E+02  '
               '3.335E+00  5.802E+00  1.322E-03  4.333E-03  7.370E-04\n',
               '-   1    4   87     1    87    1.9257E+01  5.0687E-03   '
               '1.9252E+01  0.000E+00  0.000E+00  0.000E+00  1.17384E+02  '
               '3.334E+00  5.802E+00  1.322E-03  4.333E-03  7.360E-04\n',
               '-   1    4   88     1    88    1.9252E+01  5.0676E-03   '
               '1.9247E+01  0.000E+00  0.000E+00  0.000E+00  1.17084E+02  '
               '3.334E+00  5.801E+00  1.322E-03  4.333E-03  7.350E-04\n',
               '-   1    4   89     1    89    1.9247E+01  5.0665E-03   '
               '1.9242E+01  0.000E+00  0.000E+00  0.000E+00  1.16783E+02  '
               '3.333E+00  5.801E+00  1.321E-03  4.332E-03  7.341E-04\n',
               '-   1    4   90     1    90    1.9242E+01  5.0654E-03   '
               '1.9237E+01  0.000E+00  0.000E+00  0.000E+00  1.16483E+02  '
               '3.333E+00  5.800E+00  1.321E-03  4.332E-03  7.333E-04\n',
               '-   1    4   91     1    91    1.9237E+01  5.0643E-03   '
               '1.9232E+01  0.000E+00  0.000E+00  0.000E+00  1.16182E+02  '
               '3.332E+00  5.799E+00  1.321E-03  4.331E-03  7.328E-04\n',
               '-   1    4   92     1    92    1.9232E+01  5.0632E-03   '
               '1.9227E+01  0.000E+00  0.000E+00  0.000E+00  1.15882E+02  '
               '3.332E+00  5.799E+00  1.321E-03  4.331E-03  7.326E-04\n',
               '-   1    4   93     1    93    1.9227E+01  5.0621E-03   '
               '1.9222E+01  0.000E+00  0.000E+00  0.000E+00  1.15582E+02  '
               '3.332E+00  5.798E+00  1.321E-03  4.329E-03  7.328E-04\n',
               '-   1    4   94     1    94    1.9222E+01  5.0610E-03   '
               '1.9217E+01  0.000E+00  0.000E+00  0.000E+00  1.15281E+02  '
               '3.331E+00  5.798E+00  1.321E-03  4.327E-03  7.336E-04\n',
               '-   1    4   95     1    95    1.9217E+01  5.0599E-03   '
               '1.9212E+01  0.000E+00  0.000E+00  0.000E+00  1.14981E+02  '
               '3.331E+00  5.797E+00  1.321E-03  4.334E-03  7.263E-04\n',
               '-   1    4   96     1    96    1.9212E+01  5.0588E-03   '
               '1.9206E+01  0.000E+00  0.000E+00  0.000E+00  1.14680E+02  '
               '3.330E+00  5.797E+00  1.320E-03  4.330E-03  7.288E-04\n',
               '-   1    4   97     1    97    1.9206E+01  5.0577E-03   '
               '1.9201E+01  0.000E+00  0.000E+00  0.000E+00  1.14380E+02  '
               '3.330E+00  5.796E+00  1.320E-03  4.325E-03  7.323E-04\n',
               '-   1    4   98     1    98    1.9201E+01  5.0566E-03   '
               '1.9196E+01  0.000E+00  0.000E+00  0.000E+00  1.14079E+02  '
               '3.329E+00  5.796E+00  1.320E-03  4.320E-03  7.369E-04\n',
               '-   1    4   99     1    99    1.9196E+01  5.0555E-03   '
               '1.9191E+01  0.000E+00  0.000E+00  0.000E+00  1.13779E+02  '
               '3.329E+00  5.795E+00  1.320E-03  4.313E-03  7.426E-04\n',
               '-   1    4  100     1   100    1.9191E+01  5.0544E-03   '
               '1.9186E+01  0.000E+00  0.000E+00  0.000E+00  1.13479E+02  '
               '3.329E+00  5.795E+00  1.320E-03  4.306E-03  7.489E-04\n',
               '-\n',
               '-\n',
               '-\n',
               '-1\n',
               '-  VOLUMETRIC BUDGET FOR UNSATURATED ZONE BENEATH STREAMS AT '
               'END OF TIME STEP    30 STRESS PERIOD  41\n',
               '-  '
               '------------------------------------------------------------------------------------------------\n',
               '-\n',
               '-    CUMULATIVE VOLUMES             L**3    RATES FOR THIS '
               'TIME STEP         L**3/T\n',
               '-    ------------------                     '
               '------------------------\n',
               '-\n',
               '-\n',
               '-          STREAM LOSS =     32528708.0000            STREAM '
               'LOSS =            0.5109\n',
               '-    CHANGE IN STORAGE =       752703.2500      CHANGE IN '
               'STORAGE =        2.0106E-02\n',
               '-       RECHARGE TO GW =     31780162.0000         RECHARGE TO '
               'GW =            0.4908\n',
               '-\n',
               '-             TOTAL IN =     32528708.0000               TOTAL '
               'IN =            0.5109\n',
               '-\n',
               '-            TOTAL OUT =     32532866.0000              TOTAL '
               'OUT =            0.5109\n',
               '-\n',
               '-             IN - OUT =        -4158.0000               IN - '
               'OUT =        1.1921E-07\n',
               '-\n',
               '-  PERCENT DISCREPANCY =           -0.00      PERCENT '
               'DISCREPANCY =             0.00\n',
               '-\n',
               '-\n',
               '-\n',
               '-1\n',
               '-  VOLUMETRIC BUDGET FOR ENTIRE MODEL AT END OF TIME STEP   '
               '30, STRESS PERIOD  41\n',
               '-  '
               '------------------------------------------------------------------------------\n',
               '-\n',
               '-     CUMULATIVE VOLUMES      L**3       RATES FOR THIS TIME '
               'STEP      L**3/T\n',
               '-     ------------------                 '
               '------------------------\n',
               '-\n',
               '-           IN:                                      IN:\n',
               '-           ---                                      ---\n',
               '-             STORAGE =    16606472.0000               STORAGE '
               '=           0.0000\n',
               '-       CONSTANT HEAD =           0.0000         CONSTANT HEAD '
               '=           0.0000\n',
               '-     HEAD DEP BOUNDS =           0.0000       HEAD DEP BOUNDS '
               '=           0.0000\n',
               '-      STREAM LEAKAGE =    31779682.0000        STREAM LEAKAGE '
               '=           0.4908\n',
               '-\n',
               '-            TOTAL IN =    48386152.0000              TOTAL IN '
               '=           0.4908\n',
               '-\n',
               '-          OUT:                                     OUT:\n',
               '-          ----                                     ----\n',
               '-             STORAGE =    16410581.0000               STORAGE '
               '=           0.2850\n',
               '-       CONSTANT HEAD =           0.0000         CONSTANT HEAD '
               '=           0.0000\n',
               '-     HEAD DEP BOUNDS =    31975214.0000       HEAD DEP BOUNDS '
               '=           0.2057\n',
               '-      STREAM LEAKAGE =           0.0000        STREAM LEAKAGE '
               '=           0.0000\n',
               '-\n',
               '-           TOTAL OUT =    48385796.0000             TOTAL OUT '
               '=           0.4907\n',
               '-\n',
               '-            IN - OUT =         356.0000              IN - OUT '
               '=       1.3205E-04\n',
               '-\n',
               '- PERCENT DISCREPANCY =           0.00     PERCENT DISCREPANCY '
               '=           0.03\n',
               '-\n',
               '-\n',
               '-\n',
               '-\n',
               '-\n',
               '-\n',
               '-         TIME SUMMARY AT END OF TIME STEP   30 IN STRESS '
               'PERIOD   41\n',
               '-                    SECONDS     MINUTES      HOURS       '
               'DAYS        YEARS\n',
               '-                    '
               '-----------------------------------------------------------\n',
               '-   TIME STEP LENGTH 2.49961E+05  4166.0      69.434      '
               '2.8931     7.92080E-03\n',
               '- STRESS PERIOD TIME 2.59200E+06  43200.      720.00      '
               '30.000     8.21355E-02\n',
               '-         TOTAL TIME 1.06272E+08 1.77120E+06  29520.      '
               '1230.0      3.3676    \n',
               '-1\n',
               '-1\n',
               '-                            STRESS PERIOD NO.   42, LENGTH '
               '=   2592000.    \n',
               '-                            '
               '-----------------------------------------------\n',
               '-\n',
               '-                              NUMBER OF TIME STEPS =    30\n',
               '-\n',
               '-                               MULTIPLIER FOR DELT =     '
               '1.100\n',
               '-\n',
               '-                            INITIAL TIME STEP SIZE =   '
               '15757.40    \n',
               '-\n',
               '- REUSING NON-PARAMETER GHB CELLS FROM LAST STRESS PERIOD\n',
               '-\n',
               '-      7 GHB CELLS\n',
               '- \n',
               '- SOLVING FOR HEAD \n',
               '-\n',
               '- NO OUTPUT CONTROL FOR STRESS PERIOD   42   TIME STEP    1\n',
               '- \n',
               '- SOLVING FOR HEAD \n',
               '-\n',
               '- NO OUTPUT CONTROL FOR STRESS PERIOD   42   TIME STEP    2\n',
               '- \n',
               '- SOLVING FOR HEAD \n',
               '-\n',
               '- NO OUTPUT CONTROL FOR STRESS PERIOD   42   TIME STEP    3\n',
               '- \n',
               '- SOLVING FOR HEAD \n',
               '-\n',
               '- NO OUTPUT CONTROL FOR STRESS PERIOD   42   TIME STEP    4\n',
               '- \n',
               '- SOLVING FOR HEAD \n',
               '-\n',
               '- NO OUTPUT CONTROL FOR STRESS PERIOD   42   TIME STEP    5\n',
               '- \n',
               '- SOLVING FOR HEAD \n',
               '-\n',
               '- NO OUTPUT CONTROL FOR STRESS PERIOD   42   TIME STEP    6\n',
               '- \n',
               '- SOLVING FOR HEAD \n',
               '-\n',
               '- NO OUTPUT CONTROL FOR STRESS PERIOD   42   TIME STEP    7\n',
               '- \n',
               '- SOLVING FOR HEAD \n',
               '-\n',
               '- NO OUTPUT CONTROL FOR STRESS PERIOD   42   TIME STEP    8\n',
               '- \n',
               '- SOLVING FOR HEAD \n',
               '-\n',
               '- NO OUTPUT CONTROL FOR STRESS PERIOD   42   TIME STEP    9\n',
               '- \n',
               '- SOLVING FOR HEAD \n',
               '-\n',
               '- NO OUTPUT CONTROL FOR STRESS PERIOD   42   TIME STEP   10\n',
               '- \n',
               '- SOLVING FOR HEAD \n',
               '-\n',
               '- NO OUTPUT CONTROL FOR STRESS PERIOD   42   TIME STEP   11\n',
               '- \n',
               '- SOLVING FOR HEAD \n',
               '-\n',
               '- NO OUTPUT CONTROL FOR STRESS PERIOD   42   TIME STEP   12\n',
               '- \n',
               '- SOLVING FOR HEAD \n',
               '-\n',
               '- NO OUTPUT CONTROL FOR STRESS PERIOD   42   TIME STEP   13\n',
               '- \n',
               '- SOLVING FOR HEAD \n',
               '-\n',
               '- NO OUTPUT CONTROL FOR STRESS PERIOD   42   TIME STEP   14\n',
               '- \n',
               '- SOLVING FOR HEAD \n',
               '-\n',
               '- NO OUTPUT CONTROL FOR STRESS PERIOD   42   TIME STEP   15\n',
               '- \n',
               '- SOLVING FOR HEAD \n',
               '-\n',
               '- NO OUTPUT CONTROL FOR STRESS PERIOD   42   TIME STEP   16\n',
               '- \n',
               '- SOLVING FOR HEAD \n',
               '-\n',
               '- NO OUTPUT CONTROL FOR STRESS PERIOD   42   TIME STEP   17\n',
               '- \n',
               '- SOLVING FOR HEAD \n',
               '-\n',
               '- NO OUTPUT CONTROL FOR STRESS PERIOD   42   TIME STEP   18\n',
               '- \n',
               '- SOLVING FOR HEAD \n',
               '-\n',
               '- NO OUTPUT CONTROL FOR STRESS PERIOD   42   TIME STEP   19\n',
               '- \n',
               '- SOLVING FOR HEAD \n',
               '-\n',
               '- NO OUTPUT CONTROL FOR STRESS PERIOD   42   TIME STEP   20\n',
               '- \n',
               '- SOLVING FOR HEAD \n',
               '-\n',
               '- NO OUTPUT CONTROL FOR STRESS PERIOD   42   TIME STEP   21\n',
               '- \n',
               '- SOLVING FOR HEAD \n',
               '-\n',
               '- NO OUTPUT CONTROL FOR STRESS PERIOD   42   TIME STEP   22\n',
               '- \n',
               '- SOLVING FOR HEAD \n',
               '-\n',
               '- NO OUTPUT CONTROL FOR STRESS PERIOD   42   TIME STEP   23\n',
               '- \n',
               '- SOLVING FOR HEAD \n',
               '-\n',
               '- NO OUTPUT CONTROL FOR STRESS PERIOD   42   TIME STEP   24\n',
               '- \n',
               '- SOLVING FOR HEAD \n',
               '-\n',
               '- NO OUTPUT CONTROL FOR STRESS PERIOD   42   TIME STEP   25\n',
               '- \n',
               '- SOLVING FOR HEAD \n',
               '-\n',
               '- NO OUTPUT CONTROL FOR STRESS PERIOD   42   TIME STEP   26\n',
               '- \n',
               '- SOLVING FOR HEAD \n',
               '-\n',
               '- NO OUTPUT CONTROL FOR STRESS PERIOD   42   TIME STEP   27\n',
               '- \n',
               '- SOLVING FOR HEAD \n',
               '-\n',
               '- NO OUTPUT CONTROL FOR STRESS PERIOD   42   TIME STEP   28\n',
               '- \n',
               '- SOLVING FOR HEAD \n',
               '-\n',
               '- NO OUTPUT CONTROL FOR STRESS PERIOD   42   TIME STEP   29\n',
               '- \n',
               '- SOLVING FOR HEAD \n',
               '-\n',
               '- NO OUTPUT CONTROL FOR STRESS PERIOD   42   TIME STEP   30\n',
               '-\n',
               '-\n',
               '-\n',
               '- STREAM LISTING     PERIOD     42   STEP       30\n',
               '-\n',
               '- LAYER ROW COL. STREAM  RCH.   FLOW INTO    STREAM     FLOW '
               'OUT OF   OVRLND.    DIRECT     STREAM      STREAM      '
               'STREAM     STREAM  STREAMBED   FLOW TO   CHNG. UNSAT. \n',
               '-                SEG.NO.  NO.   STRM. RCH.    LOSS       STRM. '
               'RCH.   RUNOFF     PRECIP       ET         HEAD        '
               'DEPTH      WIDTH  CONDCTNC.   WAT. TAB.\n',
               '-\n',
               '-   1    4    1     1     1    9.1102E+00  2.7476E-03   '
               '9.1075E+00  0.000E+00  0.000E+00  0.000E+00  1.42146E+02  '
               '2.296E+00  4.559E+00  9.827E-04  2.950E-03 -2.025E-04\n',
               '-   1    4    2     1     2    9.1075E+00  2.7470E-03   '
               '9.1047E+00  0.000E+00  0.000E+00  0.000E+00  1.41845E+02  '
               '2.295E+00  4.559E+00  9.826E-04  2.943E-03 -1.956E-04\n',
               '-   1    4    3     1     3    9.1047E+00  2.7463E-03   '
               '9.1020E+00  0.000E+00  0.000E+00  0.000E+00  1.41545E+02  '
               '2.295E+00  4.558E+00  9.825E-04  2.935E-03 -1.889E-04\n',
               '-   1    4    4     1     4    9.1020E+00  2.7456E-03   '
               '9.0992E+00  0.000E+00  0.000E+00  0.000E+00  1.41245E+02  '
               '2.295E+00  4.558E+00  9.824E-04  2.931E-03 -1.855E-04\n',
               '-   1    4    5     1     5    9.0992E+00  2.7450E-03   '
               '9.0965E+00  0.000E+00  0.000E+00  0.000E+00  1.40944E+02  '
               '2.294E+00  4.557E+00  9.823E-04  2.930E-03 -1.853E-04\n',
               '-   1    4    6     1     6    9.0965E+00  2.7443E-03   '
               '9.0937E+00  0.000E+00  0.000E+00  0.000E+00  1.40644E+02  '
               '2.294E+00  4.557E+00  9.822E-04  2.929E-03 -1.851E-04\n',
               '-   1    4    7     1     7    9.0937E+00  2.7436E-03   '
               '9.0910E+00  0.000E+00  0.000E+00  0.000E+00  1.40343E+02  '
               '2.293E+00  4.556E+00  9.821E-04  2.929E-03 -1.849E-04\n',
               '-   1    4    8     1     8    9.0910E+00  2.7430E-03   '
               '9.0882E+00  0.000E+00  0.000E+00  0.000E+00  1.40043E+02  '
               '2.293E+00  4.556E+00  9.819E-04  2.928E-03 -1.847E-04\n',
               '-   1    4    9     1     9    9.0882E+00  2.7423E-03   '
               '9.0855E+00  0.000E+00  0.000E+00  0.000E+00  1.39743E+02  '
               '2.293E+00  4.556E+00  9.818E-04  2.927E-03 -1.845E-04\n',
               '-   1    4   10     1    10    9.0855E+00  2.7416E-03   '
               '9.0828E+00  0.000E+00  0.000E+00  0.000E+00  1.39442E+02  '
               '2.292E+00  4.555E+00  9.817E-04  2.926E-03 -1.842E-04\n',
               '-   1    4   11     1    11    9.0828E+00  2.7410E-03   '
               '9.0800E+00  0.000E+00  0.000E+00  0.000E+00  1.39142E+02  '
               '2.292E+00  4.555E+00  9.816E-04  2.925E-03 -1.839E-04\n',
               '-   1    4   12     1    12    9.0800E+00  2.7403E-03   '
               '9.0773E+00  0.000E+00  0.000E+00  0.000E+00  1.38842E+02  '
               '2.292E+00  4.554E+00  9.815E-04  2.924E-03 -1.837E-04\n',
               '-   1    4   13     1    13    9.0773E+00  2.7396E-03   '
               '9.0745E+00  0.000E+00  0.000E+00  0.000E+00  1.38541E+02  '
               '2.291E+00  4.554E+00  9.814E-04  2.923E-03 -1.833E-04\n',
               '-   1    4   14     1    14    9.0745E+00  2.7390E-03   '
               '9.0718E+00  0.000E+00  0.000E+00  0.000E+00  1.38241E+02  '
               '2.291E+00  4.554E+00  9.812E-04  2.922E-03 -1.830E-04\n',
               '-   1    4   15     1    15    9.0718E+00  2.7383E-03   '
               '9.0691E+00  0.000E+00  0.000E+00  0.000E+00  1.37941E+02  '
               '2.291E+00  4.553E+00  9.811E-04  2.921E-03 -1.826E-04\n',
               '-   1    4   16     1    16    9.0691E+00  2.7376E-03   '
               '9.0663E+00  0.000E+00  0.000E+00  0.000E+00  1.37640E+02  '
               '2.290E+00  4.553E+00  9.810E-04  2.918E-03 -1.803E-04\n',
               '-   1    4   17     1    17    9.0663E+00  2.7370E-03   '
               '9.0636E+00  0.000E+00  0.000E+00  0.000E+00  1.37340E+02  '
               '2.290E+00  4.552E+00  9.809E-04  2.912E-03 -1.747E-04\n',
               '-   1    4   18     1    18    9.0636E+00  2.7363E-03   '
               '9.0608E+00  0.000E+00  0.000E+00  0.000E+00  1.37040E+02  '
               '2.290E+00  4.552E+00  9.808E-04  2.905E-03 -1.692E-04\n',
               '-   1    4   19     1    19    9.0608E+00  2.7357E-03   '
               '9.0581E+00  0.000E+00  0.000E+00  0.000E+00  1.36739E+02  '
               '2.289E+00  4.551E+00  9.807E-04  2.899E-03 -1.638E-04\n',
               '-   1    4   20     1    20    9.0581E+00  2.7350E-03   '
               '9.0554E+00  0.000E+00  0.000E+00  0.000E+00  1.36439E+02  '
               '2.289E+00  4.551E+00  9.806E-04  2.894E-03 -1.586E-04\n',
               '-   1    4   21     1    21    9.0554E+00  2.7343E-03   '
               '9.0526E+00  0.000E+00  0.000E+00  0.000E+00  1.36139E+02  '
               '2.289E+00  4.551E+00  9.804E-04  2.888E-03 -1.535E-04\n',
               '-   1    4   22     1    22    9.0526E+00  2.7337E-03   '
               '9.0499E+00  0.000E+00  0.000E+00  0.000E+00  1.35838E+02  '
               '2.288E+00  4.550E+00  9.803E-04  2.882E-03 -1.486E-04\n',
               '-   1    4   23     1    23    9.0499E+00  2.7330E-03   '
               '9.0472E+00  0.000E+00  0.000E+00  0.000E+00  1.35538E+02  '
               '2.288E+00  4.550E+00  9.802E-04  2.877E-03 -1.438E-04\n',
               '-   1    4   24     1    24    9.0472E+00  2.7323E-03   '
               '9.0444E+00  0.000E+00  0.000E+00  0.000E+00  1.35237E+02  '
               '2.287E+00  4.549E+00  9.801E-04  2.872E-03 -1.392E-04\n',
               '-   1    4   25     1    25    9.0444E+00  2.7317E-03   '
               '9.0417E+00  0.000E+00  0.000E+00  0.000E+00  1.34937E+02  '
               '2.287E+00  4.549E+00  9.800E-04  2.866E-03 -1.348E-04\n',
               '-   1    4   26     1    26    9.0417E+00  2.7310E-03   '
               '9.0390E+00  0.000E+00  0.000E+00  0.000E+00  1.34637E+02  '
               '2.287E+00  4.548E+00  9.799E-04  2.861E-03 -1.305E-04\n',
               '-   1    4   27     1    27    9.0390E+00  2.7303E-03   '
               '9.0362E+00  0.000E+00  0.000E+00  0.000E+00  1.34336E+02  '
               '2.286E+00  4.548E+00  9.798E-04  2.858E-03 -1.277E-04\n',
               '-   1    4   28     1    28    9.0362E+00  2.7297E-03   '
               '9.0335E+00  0.000E+00  0.000E+00  0.000E+00  1.34036E+02  '
               '2.286E+00  4.548E+00  9.796E-04  2.857E-03 -1.273E-04\n',
               '-   1    4   29     1    29    9.0335E+00  2.7290E-03   '
               '9.0308E+00  0.000E+00  0.000E+00  0.000E+00  1.33736E+02  '
               '2.286E+00  4.547E+00  9.795E-04  2.856E-03 -1.269E-04\n',
               '-   1    4   30     1    30    9.0308E+00  2.7284E-03   '
               '9.0281E+00  0.000E+00  0.000E+00  0.000E+00  1.33435E+02  '
               '2.285E+00  4.547E+00  9.794E-04  2.855E-03 -1.265E-04\n',
               '-   1    4   31     1    31    9.0281E+00  2.7277E-03   '
               '9.0253E+00  0.000E+00  0.000E+00  0.000E+00  1.33135E+02  '
               '2.285E+00  4.546E+00  9.793E-04  2.854E-03 -1.262E-04\n',
               '-   1    4   32     1    32    9.0253E+00  2.7270E-03   '
               '9.0226E+00  0.000E+00  0.000E+00  0.000E+00  1.32835E+02  '
               '2.285E+00  4.546E+00  9.792E-04  2.853E-03 -1.258E-04\n',
               '-   1    4   33     1    33    9.0226E+00  2.7264E-03   '
               '9.0199E+00  0.000E+00  0.000E+00  0.000E+00  1.32534E+02  '
               '2.284E+00  4.546E+00  9.791E-04  2.852E-03 -1.254E-04\n',
               '-   1    4   34     1    34    9.0199E+00  2.7257E-03   '
               '9.0172E+00  0.000E+00  0.000E+00  0.000E+00  1.32234E+02  '
               '2.284E+00  4.545E+00  9.790E-04  2.851E-03 -1.250E-04\n',
               '-   1    4   35     1    35    9.0172E+00  2.7250E-03   '
               '9.0144E+00  0.000E+00  0.000E+00  0.000E+00  1.31934E+02  '
               '2.284E+00  4.545E+00  9.788E-04  2.850E-03 -1.246E-04\n',
               '-   1    4   36     1    36    9.0144E+00  2.7244E-03   '
               '9.0117E+00  0.000E+00  0.000E+00  0.000E+00  1.31633E+02  '
               '2.283E+00  4.544E+00  9.787E-04  2.849E-03 -1.242E-04\n',
               '-   1    4   37     1    37    9.0117E+00  2.7237E-03   '
               '9.0090E+00  0.000E+00  0.000E+00  0.000E+00  1.31333E+02  '
               '2.283E+00  4.544E+00  9.786E-04  2.848E-03 -1.238E-04\n',
               '-   1    4   38     1    38    9.0090E+00  2.7231E-03   '
               '9.0063E+00  0.000E+00  0.000E+00  0.000E+00  1.31033E+02  '
               '2.283E+00  4.543E+00  9.785E-04  2.846E-03 -1.234E-04\n',
               '-   1    4   39     1    39    9.0063E+00  2.7224E-03   '
               '9.0035E+00  0.000E+00  0.000E+00  0.000E+00  1.30732E+02  '
               '2.282E+00  4.543E+00  9.784E-04  2.845E-03 -1.230E-04\n',
               '-   1    4   40     1    40    9.0035E+00  2.7217E-03   '
               '9.0008E+00  0.000E+00  0.000E+00  0.000E+00  1.30432E+02  '
               '2.282E+00  4.543E+00  9.783E-04  2.844E-03 -1.226E-04\n',
               '-   1    4   41     1    41    9.0008E+00  2.7211E-03   '
               '8.9981E+00  0.000E+00  0.000E+00  0.000E+00  1.30132E+02  '
               '2.282E+00  4.542E+00  9.782E-04  2.843E-03 -1.222E-04\n',
               '-   1    4   42     1    42    8.9981E+00  2.7204E-03   '
               '8.9954E+00  0.000E+00  0.000E+00  0.000E+00  1.29831E+02  '
               '2.281E+00  4.542E+00  9.780E-04  2.842E-03 -1.218E-04\n',
               '-   1    4   43     1    43    8.9954E+00  2.7198E-03   '
               '8.9927E+00  0.000E+00  0.000E+00  0.000E+00  1.29531E+02  '
               '2.281E+00  4.541E+00  9.779E-04  2.841E-03 -1.214E-04\n',
               '-   1    4   44     1    44    8.9927E+00  2.7191E-03   '
               '8.9899E+00  0.000E+00  0.000E+00  0.000E+00  1.29230E+02  '
               '2.280E+00  4.541E+00  9.778E-04  2.840E-03 -1.210E-04\n',
               '-   1    4   45     1    45    8.9899E+00  2.7184E-03   '
               '8.9872E+00  0.000E+00  0.000E+00  0.000E+00  1.28930E+02  '
               '2.280E+00  4.541E+00  9.777E-04  2.839E-03 -1.207E-04\n',
               '-   1    4   46     1    46    8.9872E+00  2.7178E-03   '
               '8.9845E+00  0.000E+00  0.000E+00  0.000E+00  1.28630E+02  '
               '2.280E+00  4.540E+00  9.776E-04  2.838E-03 -1.203E-04\n',
               '-   1    4   47     1    47    8.9845E+00  2.7171E-03   '
               '8.9818E+00  0.000E+00  0.000E+00  0.000E+00  1.28329E+02  '
               '2.279E+00  4.540E+00  9.775E-04  2.837E-03 -1.199E-04\n',
               '-   1    4   48     1    48    8.9818E+00  2.7165E-03   '
               '8.9791E+00  0.000E+00  0.000E+00  0.000E+00  1.28029E+02  '
               '2.279E+00  4.539E+00  9.774E-04  2.836E-03 -1.196E-04\n',
               '-   1    4   49     1    49    8.9791E+00  2.7158E-03   '
               '8.9763E+00  0.000E+00  0.000E+00  0.000E+00  1.27729E+02  '
               '2.279E+00  4.539E+00  9.772E-04  2.835E-03 -1.192E-04\n',
               '-   1    4   50     1    50    8.9763E+00  2.7151E-03   '
               '8.9736E+00  0.000E+00  0.000E+00  0.000E+00  1.27428E+02  '
               '2.278E+00  4.538E+00  9.771E-04  2.834E-03 -1.188E-04\n',
               '-   1    4   51     1    51    8.9736E+00  2.7145E-03   '
               '8.9709E+00  0.000E+00  0.000E+00  0.000E+00  1.27128E+02  '
               '2.278E+00  4.538E+00  9.770E-04  2.833E-03 -1.185E-04\n',
               '-   1    4   52     1    52    8.9709E+00  2.7138E-03   '
               '8.9682E+00  0.000E+00  0.000E+00  0.000E+00  1.26828E+02  '
               '2.278E+00  4.538E+00  9.769E-04  2.832E-03 -1.182E-04\n',
               '-   1    4   53     1    53    8.9682E+00  2.7132E-03   '
               '8.9655E+00  0.000E+00  0.000E+00  0.000E+00  1.26527E+02  '
               '2.277E+00  4.537E+00  9.768E-04  2.831E-03 -1.179E-04\n',
               '-   1    4   54     1    54    8.9655E+00  2.7125E-03   '
               '8.9628E+00  0.000E+00  0.000E+00  0.000E+00  1.26227E+02  '
               '2.277E+00  4.537E+00  9.767E-04  2.830E-03 -1.176E-04\n',
               '-   1    4   55     1    55    8.9628E+00  2.7118E-03   '
               '8.9601E+00  0.000E+00  0.000E+00  0.000E+00  1.25927E+02  '
               '2.277E+00  4.536E+00  9.766E-04  2.829E-03 -1.173E-04\n',
               '-   1    4   56     1    56    8.9601E+00  2.7112E-03   '
               '8.9574E+00  0.000E+00  0.000E+00  0.000E+00  1.25626E+02  '
               '2.276E+00  4.536E+00  9.764E-04  2.828E-03 -1.170E-04\n',
               '-   1    4   57     1    57    8.9574E+00  2.7105E-03   '
               '8.9546E+00  0.000E+00  0.000E+00  0.000E+00  1.25326E+02  '
               '2.276E+00  4.535E+00  9.763E-04  2.827E-03 -1.167E-04\n',
               '-   1    4   58     1    58    8.9546E+00  2.7099E-03   '
               '8.9519E+00  0.000E+00  0.000E+00  0.000E+00  1.25026E+02  '
               '2.276E+00  4.535E+00  9.762E-04  2.826E-03 -1.165E-04\n',
               '-   1    4   59     1    59    8.9519E+00  2.7092E-03   '
               '8.9492E+00  0.000E+00  0.000E+00  0.000E+00  1.24725E+02  '
               '2.275E+00  4.535E+00  9.761E-04  2.825E-03 -1.162E-04\n',
               '-   1    4   60     1    60    8.9492E+00  2.7085E-03   '
               '8.9465E+00  0.000E+00  0.000E+00  0.000E+00  1.24425E+02  '
               '2.275E+00  4.534E+00  9.760E-04  2.825E-03 -1.160E-04\n',
               '-   1    4   61     1    61    8.9465E+00  2.7079E-03   '
               '8.9438E+00  0.000E+00  0.000E+00  0.000E+00  1.24125E+02  '
               '2.275E+00  4.534E+00  9.759E-04  2.824E-03 -1.158E-04\n',
               '-   1    4   62     1    62    8.9438E+00  2.7072E-03   '
               '8.9411E+00  0.000E+00  0.000E+00  0.000E+00  1.23824E+02  '
               '2.274E+00  4.533E+00  9.758E-04  2.823E-03 -1.157E-04\n',
               '-   1    4   63     1    63    8.9411E+00  2.7066E-03   '
               '8.9384E+00  0.000E+00  0.000E+00  0.000E+00  1.23524E+02  '
               '2.274E+00  4.533E+00  9.756E-04  2.826E-03 -1.190E-04\n',
               '-   1    4   64     1    64    8.9384E+00  2.7059E-03   '
               '8.9357E+00  0.000E+00  0.000E+00  0.000E+00  1.23223E+02  '
               '2.273E+00  4.533E+00  9.755E-04  2.830E-03 -1.238E-04\n',
               '-   1    4   65     1    65    8.9357E+00  2.7053E-03   '
               '8.9330E+00  0.000E+00  0.000E+00  0.000E+00  1.22923E+02  '
               '2.273E+00  4.532E+00  9.754E-04  2.834E-03 -1.290E-04\n',
               '-   1    4   66     1    66    8.9330E+00  2.7046E-03   '
               '8.9303E+00  0.000E+00  0.000E+00  0.000E+00  1.22623E+02  '
               '2.273E+00  4.532E+00  9.753E-04  2.839E-03 -1.344E-04\n',
               '-   1    4   67     1    67    8.9303E+00  2.7039E-03   '
               '8.9276E+00  0.000E+00  0.000E+00  0.000E+00  1.22322E+02  '
               '2.272E+00  4.531E+00  9.752E-04  2.844E-03 -1.403E-04\n',
               '-   1    4   68     1    68    8.9276E+00  2.7033E-03   '
               '8.9249E+00  0.000E+00  0.000E+00  0.000E+00  1.22022E+02  '
               '2.272E+00  4.531E+00  9.751E-04  2.850E-03 -1.464E-04\n',
               '-   1    4   69     1    69    8.9249E+00  2.7026E-03   '
               '8.9222E+00  0.000E+00  0.000E+00  0.000E+00  1.21722E+02  '
               '2.272E+00  4.530E+00  9.750E-04  2.856E-03 -1.529E-04\n',
               '-   1    4   70     1    70    8.9222E+00  2.7020E-03   '
               '8.9195E+00  0.000E+00  0.000E+00  0.000E+00  1.21421E+02  '
               '2.271E+00  4.530E+00  9.748E-04  2.862E-03 -1.598E-04\n',
               '-   1    4   71     1    71    8.9195E+00  2.7013E-03   '
               '8.9168E+00  0.000E+00  0.000E+00  0.000E+00  1.21121E+02  '
               '2.271E+00  4.530E+00  9.747E-04  2.865E-03 -1.636E-04\n',
               '-   1    4   72     1    72    8.9168E+00  2.7006E-03   '
               '8.9141E+00  0.000E+00  0.000E+00  0.000E+00  1.20821E+02  '
               '2.271E+00  4.529E+00  9.746E-04  2.864E-03 -1.636E-04\n',
               '-   1    4   73     1    73    8.9141E+00  2.7000E-03   '
               '8.9114E+00  0.000E+00  0.000E+00  0.000E+00  1.20520E+02  '
               '2.270E+00  4.529E+00  9.745E-04  2.864E-03 -1.637E-04\n',
               '-   1    4   74     1    74    8.9114E+00  2.6993E-03   '
               '8.9087E+00  0.000E+00  0.000E+00  0.000E+00  1.20220E+02  '
               '2.270E+00  4.528E+00  9.744E-04  2.863E-03 -1.637E-04\n',
               '-   1    4   75     1    75    8.9087E+00  2.6987E-03   '
               '8.9060E+00  0.000E+00  0.000E+00  0.000E+00  1.19920E+02  '
               '2.270E+00  4.528E+00  9.743E-04  2.862E-03 -1.638E-04\n',
               '-   1    4   76     1    76    8.9060E+00  2.6980E-03   '
               '8.9033E+00  0.000E+00  0.000E+00  0.000E+00  1.19619E+02  '
               '2.269E+00  4.528E+00  9.742E-04  2.862E-03 -1.638E-04\n',
               '-   1    4   77     1    77    8.9033E+00  2.6974E-03   '
               '8.9006E+00  0.000E+00  0.000E+00  0.000E+00  1.19319E+02  '
               '2.269E+00  4.527E+00  9.740E-04  2.861E-03 -1.639E-04\n',
               '-   1    4   78     1    78    8.9006E+00  2.6967E-03   '
               '8.8979E+00  0.000E+00  0.000E+00  0.000E+00  1.19019E+02  '
               '2.269E+00  4.527E+00  9.739E-04  2.861E-03 -1.640E-04\n',
               '-   1    4   79     1    79    8.8979E+00  2.6961E-03   '
               '8.8952E+00  0.000E+00  0.000E+00  0.000E+00  1.18718E+02  '
               '2.268E+00  4.526E+00  9.738E-04  2.862E-03 -1.660E-04\n',
               '-   1    4   80     1    80    8.8952E+00  2.6954E-03   '
               '8.8925E+00  0.000E+00  0.000E+00  0.000E+00  1.18418E+02  '
               '2.268E+00  4.526E+00  9.737E-04  2.871E-03 -1.758E-04\n',
               '-   1    4   81     1    81    8.8925E+00  2.6947E-03   '
               '8.8898E+00  0.000E+00  0.000E+00  0.000E+00  1.18118E+02  '
               '2.268E+00  4.525E+00  9.736E-04  2.881E-03 -1.860E-04\n',
               '-   1    4   82     1    82    8.8898E+00  2.6941E-03   '
               '8.8871E+00  0.000E+00  0.000E+00  0.000E+00  1.17817E+02  '
               '2.267E+00  4.525E+00  9.735E-04  2.891E-03 -1.965E-04\n',
               '-   1    4   83     1    83    8.8871E+00  2.6934E-03   '
               '8.8844E+00  0.000E+00  0.000E+00  0.000E+00  1.17517E+02  '
               '2.267E+00  4.525E+00  9.734E-04  2.901E-03 -2.073E-04\n',
               '-   1    4   84     1    84    8.8844E+00  2.6928E-03   '
               '8.8817E+00  0.000E+00  0.000E+00  0.000E+00  1.17216E+02  '
               '2.266E+00  4.524E+00  9.732E-04  2.911E-03 -2.184E-04\n',
               '-   1    4   85     1    85    8.8817E+00  2.6921E-03   '
               '8.8790E+00  0.000E+00  0.000E+00  0.000E+00  1.16916E+02  '
               '2.266E+00  4.524E+00  9.731E-04  2.912E-03 -2.203E-04\n',
               '-   1    4   86     1    86    8.8790E+00  2.6915E-03   '
               '8.8763E+00  0.000E+00  0.000E+00  0.000E+00  1.16616E+02  '
               '2.266E+00  4.523E+00  9.730E-04  2.911E-03 -2.200E-04\n',
               '-   1    4   87     1    87    8.8763E+00  2.6908E-03   '
               '8.8736E+00  0.000E+00  0.000E+00  0.000E+00  1.16315E+02  '
               '2.265E+00  4.523E+00  9.729E-04  2.914E-03 -2.235E-04\n',
               '-   1    4   88     1    88    8.8736E+00  2.6902E-03   '
               '8.8709E+00  0.000E+00  0.000E+00  0.000E+00  1.16015E+02  '
               '2.265E+00  4.523E+00  9.728E-04  2.913E-03 -2.230E-04\n',
               '-   1    4   89     1    89    8.8709E+00  2.6895E-03   '
               '8.8683E+00  0.000E+00  0.000E+00  0.000E+00  1.15715E+02  '
               '2.265E+00  4.522E+00  9.727E-04  2.913E-03 -2.230E-04\n',
               '-   1    4   90     1    90    8.8683E+00  2.6888E-03   '
               '8.8656E+00  0.000E+00  0.000E+00  0.000E+00  1.15414E+02  '
               '2.264E+00  4.522E+00  9.726E-04  2.924E-03 -2.349E-04\n',
               '-   1    4   91     1    91    8.8656E+00  2.6882E-03   '
               '8.8629E+00  0.000E+00  0.000E+00  0.000E+00  1.15114E+02  '
               '2.264E+00  4.521E+00  9.724E-04  2.935E-03 -2.470E-04\n',
               '-   1    4   92     1    92    8.8629E+00  2.6875E-03   '
               '8.8602E+00  0.000E+00  0.000E+00  0.000E+00  1.14814E+02  '
               '2.264E+00  4.521E+00  9.723E-04  2.947E-03 -2.595E-04\n',
               '-   1    4   93     1    93    8.8602E+00  2.6869E-03   '
               '8.8575E+00  0.000E+00  0.000E+00  0.000E+00  1.14513E+02  '
               '2.263E+00  4.520E+00  9.722E-04  2.959E-03 -2.723E-04\n',
               '-   1    4   94     1    94    8.8575E+00  2.6862E-03   '
               '8.8548E+00  0.000E+00  0.000E+00  0.000E+00  1.14213E+02  '
               '2.263E+00  4.520E+00  9.721E-04  2.966E-03 -2.794E-04\n',
               '-   1    4   95     1    95    8.8548E+00  2.6856E-03   '
               '8.8521E+00  0.000E+00  0.000E+00  0.000E+00  1.13913E+02  '
               '2.263E+00  4.520E+00  9.720E-04  2.964E-03 -2.779E-04\n',
               '-   1    4   96     1    96    8.8521E+00  2.6849E-03   '
               '8.8494E+00  0.000E+00  0.000E+00  0.000E+00  1.13612E+02  '
               '2.262E+00  4.519E+00  9.719E-04  2.961E-03 -2.765E-04\n',
               '-   1    4   97     1    97    8.8494E+00  2.6843E-03   '
               '8.8468E+00  0.000E+00  0.000E+00  0.000E+00  1.13312E+02  '
               '2.262E+00  4.519E+00  9.718E-04  2.966E-03 -2.820E-04\n',
               '-   1    4   98     1    98    8.8468E+00  2.6836E-03   '
               '8.8441E+00  0.000E+00  0.000E+00  0.000E+00  1.13012E+02  '
               '2.262E+00  4.518E+00  9.717E-04  2.980E-03 -2.960E-04\n',
               '-   1    4   99     1    99    8.8441E+00  2.6830E-03   '
               '8.8414E+00  0.000E+00  0.000E+00  0.000E+00  1.12711E+02  '
               '2.261E+00  4.518E+00  9.715E-04  2.994E-03 -3.107E-04\n',
               '-   1    4  100     1   100    8.8414E+00  2.6823E-03   '
               '8.8387E+00  0.000E+00  0.000E+00  0.000E+00  1.12411E+02  '
               '2.261E+00  4.517E+00  9.714E-04  3.009E-03 -3.266E-04\n',
               '-\n',
               '-\n',
               '-\n',
               '-1\n',
               '-  VOLUMETRIC BUDGET FOR UNSATURATED ZONE BENEATH STREAMS AT '
               'END OF TIME STEP    30 STRESS PERIOD  42\n',
               '-  '
               '------------------------------------------------------------------------------------------------\n',
               '-\n',
               '-    CUMULATIVE VOLUMES             L**3    RATES FOR THIS '
               'TIME STEP         L**3/T\n',
               '-    ------------------                     '
               '------------------------\n',
               '-\n',
               '-\n',
               '-          STREAM LOSS =     33232374.0000            STREAM '
               'LOSS =            0.2715\n',
               '-    CHANGE IN STORAGE =       571379.8750      CHANGE IN '
               'STORAGE =       -1.6594E-02\n',
               '-       RECHARGE TO GW =     32665270.0000         RECHARGE TO '
               'GW =            0.2881\n',
               '-\n',
               '-             TOTAL IN =     33232374.0000               TOTAL '
               'IN =            0.2881\n',
               '-\n',
               '-            TOTAL OUT =     33236650.0000              TOTAL '
               'OUT =            0.2881\n',
               '-\n',
               '-             IN - OUT =        -4276.0000               IN - '
               'OUT =        2.9802E-08\n',
               '-\n',
               '-  PERCENT DISCREPANCY =           -0.00      PERCENT '
               'DISCREPANCY =             0.00\n',
               '-\n',
               '-\n',
               '-\n',
               '-1\n',
               '-  VOLUMETRIC BUDGET FOR ENTIRE MODEL AT END OF TIME STEP   '
               '30, STRESS PERIOD  42\n',
               '-  '
               '------------------------------------------------------------------------------\n',
               '-\n',
               '-     CUMULATIVE VOLUMES      L**3       RATES FOR THIS TIME '
               'STEP      L**3/T\n',
               '-     ------------------                 '
               '------------------------\n',
               '-\n',
               '-           IN:                                      IN:\n',
               '-           ---                                      ---\n',
               '-             STORAGE =    16606723.0000               STORAGE '
               '=       7.4506E-08\n',
               '-       CONSTANT HEAD =           0.0000         CONSTANT HEAD '
               '=           0.0000\n',
               '-     HEAD DEP BOUNDS =           0.0000       HEAD DEP BOUNDS '
               '=           0.0000\n',
               '-      STREAM LEAKAGE =    32664728.0000        STREAM LEAKAGE '
               '=           0.2881\n',
               '-\n',
               '-            TOTAL IN =    49271452.0000              TOTAL IN '
               '=           0.2881\n',
               '-\n',
               '-          OUT:                                     OUT:\n',
               '-          ----                                     ----\n',
               '-             STORAGE =    16759987.0000               STORAGE '
               '=       8.0955E-02\n',
               '-       CONSTANT HEAD =           0.0000         CONSTANT HEAD '
               '=           0.0000\n',
               '-     HEAD DEP BOUNDS =    32511034.0000       HEAD DEP BOUNDS '
               '=           0.2070\n',
               '-      STREAM LEAKAGE =           0.0000        STREAM LEAKAGE '
               '=           0.0000\n',
               '-\n',
               '-           TOTAL OUT =    49271020.0000             TOTAL OUT '
               '=           0.2879\n',
               '-\n',
               '-            IN - OUT =         432.0000              IN - OUT '
               '=       1.5354E-04\n',
               '-\n',
               '- PERCENT DISCREPANCY =           0.00     PERCENT DISCREPANCY '
               '=           0.05\n',
               '-\n',
               '-\n',
               '-\n',
               '-\n',
               '-\n',
               '-\n',
               '-         TIME SUMMARY AT END OF TIME STEP   30 IN STRESS '
               'PERIOD   42\n',
               '-                    SECONDS     MINUTES      HOURS       '
               'DAYS        YEARS\n',
               '-                    '
               '-----------------------------------------------------------\n',
               '-   TIME STEP LENGTH 2.49961E+05  4166.0      69.434      '
               '2.8931     7.92080E-03\n',
               '- STRESS PERIOD TIME 2.59200E+06  43200.      720.00      '
               '30.000     8.21355E-02\n',
               '-         TOTAL TIME 1.08864E+08 1.81440E+06  30240.      '
               '1260.0      3.4497    \n',
               '-1\n',
               '-1\n',
               '-                            STRESS PERIOD NO.   43, LENGTH '
               '=   2592000.    \n',
               '-                            '
               '-----------------------------------------------\n',
               '-\n',
               '-                              NUMBER OF TIME STEPS =    30\n',
               '-\n',
               '-                               MULTIPLIER FOR DELT =     '
               '1.100\n',
               '-\n',
               '-                            INITIAL TIME STEP SIZE =   '
               '15757.40    \n',
               '-\n',
               '- REUSING NON-PARAMETER GHB CELLS FROM LAST STRESS PERIOD\n',
               '-\n',
               '-      7 GHB CELLS\n',
               '- \n',
               '- SOLVING FOR HEAD \n',
               '-\n',
               '- NO OUTPUT CONTROL FOR STRESS PERIOD   43   TIME STEP    1\n',
               '- \n',
               '- SOLVING FOR HEAD \n',
               '-\n',
               '- NO OUTPUT CONTROL FOR STRESS PERIOD   43   TIME STEP    2\n',
               '- \n',
               '- SOLVING FOR HEAD \n',
               '-\n',
               '- NO OUTPUT CONTROL FOR STRESS PERIOD   43   TIME STEP    3\n',
               '- \n',
               '- SOLVING FOR HEAD \n',
               '-\n',
               '- NO OUTPUT CONTROL FOR STRESS PERIOD   43   TIME STEP    4\n',
               '- \n',
               '- SOLVING FOR HEAD \n',
               '-\n',
               '- NO OUTPUT CONTROL FOR STRESS PERIOD   43   TIME STEP    5\n',
               '- \n',
               '- SOLVING FOR HEAD \n',
               '-\n',
               '- NO OUTPUT CONTROL FOR STRESS PERIOD   43   TIME STEP    6\n',
               '- \n',
               '- SOLVING FOR HEAD \n',
               '-\n',
               '- NO OUTPUT CONTROL FOR STRESS PERIOD   43   TIME STEP    7\n',
               '- \n',
               '- SOLVING FOR HEAD \n',
               '-\n',
               '- NO OUTPUT CONTROL FOR STRESS PERIOD   43   TIME STEP    8\n',
               '- \n',
               '- SOLVING FOR HEAD \n',
               '-\n',
               '- NO OUTPUT CONTROL FOR STRESS PERIOD   43   TIME STEP    9\n',
               '- \n',
               '- SOLVING FOR HEAD \n',
               '-\n',
               '- NO OUTPUT CONTROL FOR STRESS PERIOD   43   TIME STEP   10\n',
               '- \n',
               '- SOLVING FOR HEAD \n',
               '-\n',
               '- NO OUTPUT CONTROL FOR STRESS PERIOD   43   TIME STEP   11\n',
               '- \n',
               '- SOLVING FOR HEAD \n',
               '-\n',
               '- NO OUTPUT CONTROL FOR STRESS PERIOD   43   TIME STEP   12\n',
               '- \n',
               '- SOLVING FOR HEAD \n',
               '-\n',
               '- NO OUTPUT CONTROL FOR STRESS PERIOD   43   TIME STEP   13\n',
               '- \n',
               '- SOLVING FOR HEAD \n',
               '-\n',
               '- NO OUTPUT CONTROL FOR STRESS PERIOD   43   TIME STEP   14\n',
               '- \n',
               '- SOLVING FOR HEAD \n',
               '-\n',
               '- NO OUTPUT CONTROL FOR STRESS PERIOD   43   TIME STEP   15\n',
               '- \n',
               '- SOLVING FOR HEAD \n',
               '-\n',
               '- NO OUTPUT CONTROL FOR STRESS PERIOD   43   TIME STEP   16\n',
               '- \n',
               '- SOLVING FOR HEAD \n',
               '-\n',
               '- NO OUTPUT CONTROL FOR STRESS PERIOD   43   TIME STEP   17\n',
               '- \n',
               '- SOLVING FOR HEAD \n',
               '-\n',
               '- NO OUTPUT CONTROL FOR STRESS PERIOD   43   TIME STEP   18\n',
               '- \n',
               '- SOLVING FOR HEAD \n',
               '-\n',
               '- NO OUTPUT CONTROL FOR STRESS PERIOD   43   TIME STEP   19\n',
               '- \n',
               '- SOLVING FOR HEAD \n',
               '-\n',
               '- NO OUTPUT CONTROL FOR STRESS PERIOD   43   TIME STEP   20\n',
               '- \n',
               '- SOLVING FOR HEAD \n',
               '-\n',
               '- NO OUTPUT CONTROL FOR STRESS PERIOD   43   TIME STEP   21\n',
               '- \n',
               '- SOLVING FOR HEAD \n',
               '-\n',
               '- NO OUTPUT CONTROL FOR STRESS PERIOD   43   TIME STEP   22\n',
               '- \n',
               '- SOLVING FOR HEAD \n',
               '-\n',
               '- NO OUTPUT CONTROL FOR STRESS PERIOD   43   TIME STEP   23\n',
               '- \n',
               '- SOLVING FOR HEAD \n',
               '-\n',
               '- NO OUTPUT CONTROL FOR STRESS PERIOD   43   TIME STEP   24\n',
               '- \n',
               '- SOLVING FOR HEAD \n',
               '-\n',
               '- NO OUTPUT CONTROL FOR STRESS PERIOD   43   TIME STEP   25\n',
               '- \n',
               '- SOLVING FOR HEAD \n',
               '-\n',
               '- NO OUTPUT CONTROL FOR STRESS PERIOD   43   TIME STEP   26\n',
               '- \n',
               '- SOLVING FOR HEAD \n',
               '-\n',
               '- NO OUTPUT CONTROL FOR STRESS PERIOD   43   TIME STEP   27\n',
               '- \n',
               '- SOLVING FOR HEAD \n',
               '-\n',
               '- NO OUTPUT CONTROL FOR STRESS PERIOD   43   TIME STEP   28\n',
               '- \n',
               '- SOLVING FOR HEAD \n',
               '-\n',
               '- NO OUTPUT CONTROL FOR STRESS PERIOD   43   TIME STEP   29\n',
               '- \n',
               '- SOLVING FOR HEAD \n',
               '-\n',
               '- NO OUTPUT CONTROL FOR STRESS PERIOD   43   TIME STEP   30\n',
               '-\n',
               '-\n',
               '-\n',
               '- STREAM LISTING     PERIOD     43   STEP       30\n',
               '-\n',
               '- LAYER ROW COL. STREAM  RCH.   FLOW INTO    STREAM     FLOW '
               'OUT OF   OVRLND.    DIRECT     STREAM      STREAM      '
               'STREAM     STREAM  STREAMBED   FLOW TO   CHNG. UNSAT. \n',
               '-                SEG.NO.  NO.   STRM. RCH.    LOSS       STRM. '
               'RCH.   RUNOFF     PRECIP       ET         HEAD        '
               'DEPTH      WIDTH  CONDCTNC.   WAT. TAB.\n',
               '-\n',
               '-   1    4    1     1     1    9.9788E+00  2.9573E-03   '
               '9.9759E+00  0.000E+00  0.000E+00  0.000E+00  1.42254E+02  '
               '2.404E+00  4.689E+00  1.018E-03  3.053E-03 -9.544E-05\n',
               '-   1    4    2     1     2    9.9759E+00  2.9566E-03   '
               '9.9729E+00  0.000E+00  0.000E+00  0.000E+00  1.41954E+02  '
               '2.404E+00  4.688E+00  1.018E-03  3.052E-03 -9.536E-05\n',
               '-   1    4    3     1     3    9.9729E+00  2.9559E-03   '
               '9.9700E+00  0.000E+00  0.000E+00  0.000E+00  1.41653E+02  '
               '2.403E+00  4.688E+00  1.018E-03  3.051E-03 -9.527E-05\n',
               '-   1    4    4     1     4    9.9700E+00  2.9552E-03   '
               '9.9670E+00  0.000E+00  0.000E+00  0.000E+00  1.41353E+02  '
               '2.403E+00  4.687E+00  1.018E-03  3.050E-03 -9.517E-05\n',
               '-   1    4    5     1     5    9.9670E+00  2.9545E-03   '
               '9.9641E+00  0.000E+00  0.000E+00  0.000E+00  1.41053E+02  '
               '2.403E+00  4.687E+00  1.018E-03  3.050E-03 -9.505E-05\n',
               '-   1    4    6     1     6    9.9641E+00  2.9538E-03   '
               '9.9611E+00  0.000E+00  0.000E+00  0.000E+00  1.40752E+02  '
               '2.402E+00  4.687E+00  1.018E-03  3.049E-03 -9.492E-05\n',
               '-   1    4    7     1     7    9.9611E+00  2.9531E-03   '
               '9.9581E+00  0.000E+00  0.000E+00  0.000E+00  1.40452E+02  '
               '2.402E+00  4.686E+00  1.017E-03  3.048E-03 -9.477E-05\n',
               '-   1    4    8     1     8    9.9581E+00  2.9524E-03   '
               '9.9552E+00  0.000E+00  0.000E+00  0.000E+00  1.40151E+02  '
               '2.401E+00  4.686E+00  1.017E-03  3.047E-03 -9.460E-05\n',
               '-   1    4    9     1     9    9.9552E+00  2.9517E-03   '
               '9.9522E+00  0.000E+00  0.000E+00  0.000E+00  1.39851E+02  '
               '2.401E+00  4.685E+00  1.017E-03  3.046E-03 -9.446E-05\n',
               '-   1    4   10     1    10    9.9522E+00  2.9510E-03   '
               '9.9493E+00  0.000E+00  0.000E+00  0.000E+00  1.39551E+02  '
               '2.401E+00  4.685E+00  1.017E-03  3.038E-03 -8.710E-05\n',
               '-   1    4   11     1    11    9.9493E+00  2.9503E-03   '
               '9.9463E+00  0.000E+00  0.000E+00  0.000E+00  1.39250E+02  '
               '2.400E+00  4.684E+00  1.017E-03  3.030E-03 -7.989E-05\n',
               '-   1    4   12     1    12    9.9463E+00  2.9496E-03   '
               '9.9434E+00  0.000E+00  0.000E+00  0.000E+00  1.38950E+02  '
               '2.400E+00  4.684E+00  1.017E-03  3.022E-03 -7.282E-05\n',
               '-   1    4   13     1    13    9.9434E+00  2.9488E-03   '
               '9.9404E+00  0.000E+00  0.000E+00  0.000E+00  1.38650E+02  '
               '2.400E+00  4.684E+00  1.017E-03  3.015E-03 -6.592E-05\n',
               '-   1    4   14     1    14    9.9404E+00  2.9481E-03   '
               '9.9375E+00  0.000E+00  0.000E+00  0.000E+00  1.38349E+02  '
               '2.399E+00  4.683E+00  1.017E-03  3.010E-03 -6.189E-05\n',
               '-   1    4   15     1    15    9.9375E+00  2.9474E-03   '
               '9.9345E+00  0.000E+00  0.000E+00  0.000E+00  1.38049E+02  '
               '2.399E+00  4.683E+00  1.016E-03  3.009E-03 -6.169E-05\n',
               '-   1    4   16     1    16    9.9345E+00  2.9467E-03   '
               '9.9316E+00  0.000E+00  0.000E+00  0.000E+00  1.37749E+02  '
               '2.399E+00  4.682E+00  1.016E-03  3.008E-03 -6.149E-05\n',
               '-   1    4   17     1    17    9.9316E+00  2.9460E-03   '
               '9.9287E+00  0.000E+00  0.000E+00  0.000E+00  1.37448E+02  '
               '2.398E+00  4.682E+00  1.016E-03  3.007E-03 -6.128E-05\n',
               '-   1    4   18     1    18    9.9287E+00  2.9453E-03   '
               '9.9257E+00  0.000E+00  0.000E+00  0.000E+00  1.37148E+02  '
               '2.398E+00  4.681E+00  1.016E-03  3.006E-03 -6.106E-05\n',
               '-   1    4   19     1    19    9.9257E+00  2.9446E-03   '
               '9.9228E+00  0.000E+00  0.000E+00  0.000E+00  1.36848E+02  '
               '2.398E+00  4.681E+00  1.016E-03  3.005E-03 -6.082E-05\n',
               '-   1    4   20     1    20    9.9228E+00  2.9439E-03   '
               '9.9198E+00  0.000E+00  0.000E+00  0.000E+00  1.36547E+02  '
               '2.397E+00  4.681E+00  1.016E-03  3.004E-03 -6.056E-05\n',
               '-   1    4   21     1    21    9.9198E+00  2.9432E-03   '
               '9.9169E+00  0.000E+00  0.000E+00  0.000E+00  1.36247E+02  '
               '2.397E+00  4.680E+00  1.016E-03  3.003E-03 -6.030E-05\n',
               '-   1    4   22     1    22    9.9169E+00  2.9425E-03   '
               '9.9139E+00  0.000E+00  0.000E+00  0.000E+00  1.35946E+02  '
               '2.396E+00  4.680E+00  1.016E-03  3.003E-03 -6.003E-05\n',
               '-   1    4   23     1    23    9.9139E+00  2.9418E-03   '
               '9.9110E+00  0.000E+00  0.000E+00  0.000E+00  1.35646E+02  '
               '2.396E+00  4.679E+00  1.016E-03  3.002E-03 -5.976E-05\n',
               '-   1    4   24     1    24    9.9110E+00  2.9411E-03   '
               '9.9081E+00  0.000E+00  0.000E+00  0.000E+00  1.35346E+02  '
               '2.396E+00  4.679E+00  1.015E-03  3.001E-03 -5.948E-05\n',
               '-   1    4   25     1    25    9.9081E+00  2.9404E-03   '
               '9.9051E+00  0.000E+00  0.000E+00  0.000E+00  1.35045E+02  '
               '2.395E+00  4.678E+00  1.015E-03  3.000E-03 -5.919E-05\n',
               '-   1    4   26     1    26    9.9051E+00  2.9397E-03   '
               '9.9022E+00  0.000E+00  0.000E+00  0.000E+00  1.34745E+02  '
               '2.395E+00  4.678E+00  1.015E-03  2.999E-03 -5.890E-05\n',
               '-   1    4   27     1    27    9.9022E+00  2.9390E-03   '
               '9.8992E+00  0.000E+00  0.000E+00  0.000E+00  1.34445E+02  '
               '2.395E+00  4.678E+00  1.015E-03  2.998E-03 -5.860E-05\n',
               '-   1    4   28     1    28    9.8992E+00  2.9383E-03   '
               '9.8963E+00  0.000E+00  0.000E+00  0.000E+00  1.34144E+02  '
               '2.394E+00  4.677E+00  1.015E-03  2.997E-03 -5.830E-05\n',
               '-   1    4   29     1    29    9.8963E+00  2.9376E-03   '
               '9.8934E+00  0.000E+00  0.000E+00  0.000E+00  1.33844E+02  '
               '2.394E+00  4.677E+00  1.015E-03  2.996E-03 -5.800E-05\n',
               '-   1    4   30     1    30    9.8934E+00  2.9369E-03   '
               '9.8904E+00  0.000E+00  0.000E+00  0.000E+00  1.33544E+02  '
               '2.394E+00  4.676E+00  1.015E-03  2.995E-03 -5.769E-05\n',
               '-   1    4   31     1    31    9.8904E+00  2.9361E-03   '
               '9.8875E+00  0.000E+00  0.000E+00  0.000E+00  1.33243E+02  '
               '2.393E+00  4.676E+00  1.015E-03  2.994E-03 -5.738E-05\n',
               '-   1    4   32     1    32    9.8875E+00  2.9354E-03   '
               '9.8845E+00  0.000E+00  0.000E+00  0.000E+00  1.32943E+02  '
               '2.393E+00  4.675E+00  1.014E-03  2.993E-03 -5.706E-05\n',
               '-   1    4   33     1    33    9.8845E+00  2.9347E-03   '
               '9.8816E+00  0.000E+00  0.000E+00  0.000E+00  1.32643E+02  '
               '2.392E+00  4.675E+00  1.014E-03  2.991E-03 -5.675E-05\n',
               '-   1    4   34     1    34    9.8816E+00  2.9340E-03   '
               '9.8787E+00  0.000E+00  0.000E+00  0.000E+00  1.32342E+02  '
               '2.392E+00  4.675E+00  1.014E-03  2.990E-03 -5.643E-05\n',
               '-   1    4   35     1    35    9.8787E+00  2.9333E-03   '
               '9.8757E+00  0.000E+00  0.000E+00  0.000E+00  1.32042E+02  '
               '2.392E+00  4.674E+00  1.014E-03  2.989E-03 -5.611E-05\n',
               '-   1    4   36     1    36    9.8757E+00  2.9326E-03   '
               '9.8728E+00  0.000E+00  0.000E+00  0.000E+00  1.31741E+02  '
               '2.391E+00  4.674E+00  1.014E-03  2.988E-03 -5.580E-05\n',
               '-   1    4   37     1    37    9.8728E+00  2.9319E-03   '
               '9.8699E+00  0.000E+00  0.000E+00  0.000E+00  1.31441E+02  '
               '2.391E+00  4.673E+00  1.014E-03  2.987E-03 -5.548E-05\n',
               '-   1    4   38     1    38    9.8699E+00  2.9312E-03   '
               '9.8670E+00  0.000E+00  0.000E+00  0.000E+00  1.31141E+02  '
               '2.391E+00  4.673E+00  1.014E-03  2.986E-03 -5.516E-05\n',
               '-   1    4   39     1    39    9.8670E+00  2.9305E-03   '
               '9.8640E+00  0.000E+00  0.000E+00  0.000E+00  1.30840E+02  '
               '2.390E+00  4.672E+00  1.014E-03  2.985E-03 -5.484E-05\n',
               '-   1    4   40     1    40    9.8640E+00  2.9298E-03   '
               '9.8611E+00  0.000E+00  0.000E+00  0.000E+00  1.30540E+02  '
               '2.390E+00  4.672E+00  1.014E-03  2.984E-03 -5.452E-05\n',
               '-   1    4   41     1    41    9.8611E+00  2.9291E-03   '
               '9.8582E+00  0.000E+00  0.000E+00  0.000E+00  1.30240E+02  '
               '2.390E+00  4.672E+00  1.013E-03  2.983E-03 -5.421E-05\n',
               '-   1    4   42     1    42    9.8582E+00  2.9284E-03   '
               '9.8552E+00  0.000E+00  0.000E+00  0.000E+00  1.29939E+02  '
               '2.389E+00  4.671E+00  1.013E-03  2.982E-03 -5.390E-05\n',
               '-   1    4   43     1    43    9.8552E+00  2.9277E-03   '
               '9.8523E+00  0.000E+00  0.000E+00  0.000E+00  1.29639E+02  '
               '2.389E+00  4.671E+00  1.013E-03  2.981E-03 -5.359E-05\n',
               '-   1    4   44     1    44    9.8523E+00  2.9270E-03   '
               '9.8494E+00  0.000E+00  0.000E+00  0.000E+00  1.29339E+02  '
               '2.389E+00  4.670E+00  1.013E-03  2.980E-03 -5.329E-05\n',
               '-   1    4   45     1    45    9.8494E+00  2.9263E-03   '
               '9.8465E+00  0.000E+00  0.000E+00  0.000E+00  1.29038E+02  '
               '2.388E+00  4.670E+00  1.013E-03  2.979E-03 -5.300E-05\n',
               '-   1    4   46     1    46    9.8465E+00  2.9256E-03   '
               '9.8435E+00  0.000E+00  0.000E+00  0.000E+00  1.28738E+02  '
               '2.388E+00  4.669E+00  1.013E-03  2.978E-03 -5.271E-05\n',
               '-   1    4   47     1    47    9.8435E+00  2.9249E-03   '
               '9.8406E+00  0.000E+00  0.000E+00  0.000E+00  1.28437E+02  '
               '2.387E+00  4.669E+00  1.013E-03  2.977E-03 -5.242E-05\n',
               '-   1    4   48     1    48    9.8406E+00  2.9242E-03   '
               '9.8377E+00  0.000E+00  0.000E+00  0.000E+00  1.28137E+02  '
               '2.387E+00  4.669E+00  1.013E-03  2.976E-03 -5.215E-05\n',
               '-   1    4   49     1    49    9.8377E+00  2.9235E-03   '
               '9.8348E+00  0.000E+00  0.000E+00  0.000E+00  1.27837E+02  '
               '2.387E+00  4.668E+00  1.012E-03  2.975E-03 -5.188E-05\n',
               '-   1    4   50     1    50    9.8348E+00  2.9228E-03   '
               '9.8318E+00  0.000E+00  0.000E+00  0.000E+00  1.27536E+02  '
               '2.386E+00  4.668E+00  1.012E-03  2.974E-03 -5.162E-05\n',
               '-   1    4   51     1    51    9.8318E+00  2.9221E-03   '
               '9.8289E+00  0.000E+00  0.000E+00  0.000E+00  1.27236E+02  '
               '2.386E+00  4.667E+00  1.012E-03  2.973E-03 -5.137E-05\n',
               '-   1    4   52     1    52    9.8289E+00  2.9214E-03   '
               '9.8260E+00  0.000E+00  0.000E+00  0.000E+00  1.26936E+02  '
               '2.386E+00  4.667E+00  1.012E-03  2.973E-03 -5.113E-05\n',
               '-   1    4   53     1    53    9.8260E+00  2.9207E-03   '
               '9.8231E+00  0.000E+00  0.000E+00  0.000E+00  1.26635E+02  '
               '2.385E+00  4.666E+00  1.012E-03  2.972E-03 -5.091E-05\n',
               '-   1    4   54     1    54    9.8231E+00  2.9200E-03   '
               '9.8201E+00  0.000E+00  0.000E+00  0.000E+00  1.26335E+02  '
               '2.385E+00  4.666E+00  1.012E-03  2.971E-03 -5.069E-05\n',
               '-   1    4   55     1    55    9.8201E+00  2.9193E-03   '
               '9.8172E+00  0.000E+00  0.000E+00  0.000E+00  1.26035E+02  '
               '2.385E+00  4.665E+00  1.012E-03  2.970E-03 -5.049E-05\n',
               '-   1    4   56     1    56    9.8172E+00  2.9186E-03   '
               '9.8143E+00  0.000E+00  0.000E+00  0.000E+00  1.25734E+02  '
               '2.384E+00  4.665E+00  1.012E-03  2.969E-03 -5.030E-05\n',
               '-   1    4   57     1    57    9.8143E+00  2.9179E-03   '
               '9.8114E+00  0.000E+00  0.000E+00  0.000E+00  1.25434E+02  '
               '2.384E+00  4.665E+00  1.012E-03  2.968E-03 -5.012E-05\n',
               '-   1    4   58     1    58    9.8114E+00  2.9172E-03   '
               '9.8085E+00  0.000E+00  0.000E+00  0.000E+00  1.25134E+02  '
               '2.384E+00  4.664E+00  1.011E-03  2.967E-03 -4.996E-05\n',
               '-   1    4   59     1    59    9.8085E+00  2.9165E-03   '
               '9.8056E+00  0.000E+00  0.000E+00  0.000E+00  1.24833E+02  '
               '2.383E+00  4.664E+00  1.011E-03  2.966E-03 -4.982E-05\n',
               '-   1    4   60     1    60    9.8056E+00  2.9158E-03   '
               '9.8026E+00  0.000E+00  0.000E+00  0.000E+00  1.24533E+02  '
               '2.383E+00  4.663E+00  1.011E-03  2.965E-03 -4.969E-05\n',
               '-   1    4   61     1    61    9.8026E+00  2.9151E-03   '
               '9.7997E+00  0.000E+00  0.000E+00  0.000E+00  1.24232E+02  '
               '2.382E+00  4.663E+00  1.011E-03  2.965E-03 -4.958E-05\n',
               '-   1    4   62     1    62    9.7997E+00  2.9144E-03   '
               '9.7968E+00  0.000E+00  0.000E+00  0.000E+00  1.23932E+02  '
               '2.382E+00  4.662E+00  1.011E-03  2.964E-03 -4.948E-05\n',
               '-   1    4   63     1    63    9.7968E+00  2.9137E-03   '
               '9.7939E+00  0.000E+00  0.000E+00  0.000E+00  1.23632E+02  '
               '2.382E+00  4.662E+00  1.011E-03  2.963E-03 -4.940E-05\n',
               '-   1    4   64     1    64    9.7939E+00  2.9130E-03   '
               '9.7910E+00  0.000E+00  0.000E+00  0.000E+00  1.23331E+02  '
               '2.381E+00  4.662E+00  1.011E-03  2.962E-03 -4.934E-05\n',
               '-   1    4   65     1    65    9.7910E+00  2.9123E-03   '
               '9.7881E+00  0.000E+00  0.000E+00  0.000E+00  1.23031E+02  '
               '2.381E+00  4.661E+00  1.011E-03  2.962E-03 -4.930E-05\n',
               '-   1    4   66     1    66    9.7881E+00  2.9116E-03   '
               '9.7852E+00  0.000E+00  0.000E+00  0.000E+00  1.22731E+02  '
               '2.381E+00  4.661E+00  1.011E-03  2.961E-03 -4.927E-05\n',
               '-   1    4   67     1    67    9.7852E+00  2.9109E-03   '
               '9.7823E+00  0.000E+00  0.000E+00  0.000E+00  1.22430E+02  '
               '2.380E+00  4.660E+00  1.010E-03  2.960E-03 -4.926E-05\n',
               '-   1    4   68     1    68    9.7823E+00  2.9102E-03   '
               '9.7793E+00  0.000E+00  0.000E+00  0.000E+00  1.22130E+02  '
               '2.380E+00  4.660E+00  1.010E-03  2.959E-03 -4.926E-05\n',
               '-   1    4   69     1    69    9.7793E+00  2.9095E-03   '
               '9.7764E+00  0.000E+00  0.000E+00  0.000E+00  1.21830E+02  '
               '2.380E+00  4.659E+00  1.010E-03  2.959E-03 -4.926E-05\n',
               '-   1    4   70     1    70    9.7764E+00  2.9088E-03   '
               '9.7735E+00  0.000E+00  0.000E+00  0.000E+00  1.21529E+02  '
               '2.379E+00  4.659E+00  1.010E-03  2.958E-03 -4.927E-05\n',
               '-   1    4   71     1    71    9.7735E+00  2.9081E-03   '
               '9.7706E+00  0.000E+00  0.000E+00  0.000E+00  1.21229E+02  '
               '2.379E+00  4.659E+00  1.010E-03  2.957E-03 -4.930E-05\n',
               '-   1    4   72     1    72    9.7706E+00  2.9074E-03   '
               '9.7677E+00  0.000E+00  0.000E+00  0.000E+00  1.20929E+02  '
               '2.378E+00  4.658E+00  1.010E-03  2.959E-03 -5.196E-05\n',
               '-   1    4   73     1    73    9.7677E+00  2.9067E-03   '
               '9.7648E+00  0.000E+00  0.000E+00  0.000E+00  1.20628E+02  '
               '2.378E+00  4.658E+00  1.010E-03  2.968E-03 -6.110E-05\n',
               '-   1    4   74     1    74    9.7648E+00  2.9060E-03   '
               '9.7619E+00  0.000E+00  0.000E+00  0.000E+00  1.20328E+02  '
               '2.378E+00  4.657E+00  1.010E-03  2.977E-03 -7.065E-05\n',
               '-   1    4   75     1    75    9.7619E+00  2.9053E-03   '
               '9.7590E+00  0.000E+00  0.000E+00  0.000E+00  1.20027E+02  '
               '2.377E+00  4.657E+00  1.009E-03  2.985E-03 -7.926E-05\n',
               '-   1    4   76     1    76    9.7590E+00  2.9046E-03   '
               '9.7561E+00  0.000E+00  0.000E+00  0.000E+00  1.19727E+02  '
               '2.377E+00  4.656E+00  1.009E-03  2.984E-03 -7.936E-05\n',
               '-   1    4   77     1    77    9.7561E+00  2.9039E-03   '
               '9.7532E+00  0.000E+00  0.000E+00  0.000E+00  1.19427E+02  '
               '2.377E+00  4.656E+00  1.009E-03  2.983E-03 -7.943E-05\n',
               '-   1    4   78     1    78    9.7532E+00  2.9032E-03   '
               '9.7503E+00  0.000E+00  0.000E+00  0.000E+00  1.19126E+02  '
               '2.376E+00  4.656E+00  1.009E-03  2.983E-03 -7.949E-05\n',
               '-   1    4   79     1    79    9.7503E+00  2.9025E-03   '
               '9.7474E+00  0.000E+00  0.000E+00  0.000E+00  1.18826E+02  '
               '2.376E+00  4.655E+00  1.009E-03  2.982E-03 -7.952E-05\n',
               '-   1    4   80     1    80    9.7474E+00  2.9018E-03   '
               '9.7445E+00  0.000E+00  0.000E+00  0.000E+00  1.18526E+02  '
               '2.376E+00  4.655E+00  1.009E-03  2.981E-03 -7.953E-05\n',
               '-   1    4   81     1    81    9.7445E+00  2.9011E-03   '
               '9.7416E+00  0.000E+00  0.000E+00  0.000E+00  1.18225E+02  '
               '2.375E+00  4.654E+00  1.009E-03  2.981E-03 -7.950E-05\n',
               '-   1    4   82     1    82    9.7416E+00  2.9004E-03   '
               '9.7387E+00  0.000E+00  0.000E+00  0.000E+00  1.17925E+02  '
               '2.375E+00  4.654E+00  1.009E-03  2.980E-03 -7.945E-05\n',
               '-   1    4   83     1    83    9.7387E+00  2.8997E-03   '
               '9.7358E+00  0.000E+00  0.000E+00  0.000E+00  1.17625E+02  '
               '2.375E+00  4.653E+00  1.009E-03  2.979E-03 -7.936E-05\n',
               '-   1    4   84     1    84    9.7358E+00  2.8990E-03   '
               '9.7329E+00  0.000E+00  0.000E+00  0.000E+00  1.17324E+02  '
               '2.374E+00  4.653E+00  1.008E-03  2.978E-03 -7.922E-05\n',
               '-   1    4   85     1    85    9.7329E+00  2.8983E-03   '
               '9.7300E+00  0.000E+00  0.000E+00  0.000E+00  1.17024E+02  '
               '2.374E+00  4.653E+00  1.008E-03  2.977E-03 -7.904E-05\n',
               '-   1    4   86     1    86    9.7300E+00  2.8976E-03   '
               '9.7271E+00  0.000E+00  0.000E+00  0.000E+00  1.16723E+02  '
               '2.373E+00  4.652E+00  1.008E-03  2.976E-03 -7.880E-05\n',
               '-   1    4   87     1    87    9.7271E+00  2.8969E-03   '
               '9.7242E+00  0.000E+00  0.000E+00  0.000E+00  1.16423E+02  '
               '2.373E+00  4.652E+00  1.008E-03  2.975E-03 -7.850E-05\n',
               '-   1    4   88     1    88    9.7242E+00  2.8962E-03   '
               '9.7213E+00  0.000E+00  0.000E+00  0.000E+00  1.16123E+02  '
               '2.373E+00  4.651E+00  1.008E-03  2.974E-03 -7.814E-05\n',
               '-   1    4   89     1    89    9.7213E+00  2.8955E-03   '
               '9.7184E+00  0.000E+00  0.000E+00  0.000E+00  1.15822E+02  '
               '2.372E+00  4.651E+00  1.008E-03  2.977E-03 -8.148E-05\n',
               '-   1    4   90     1    90    9.7184E+00  2.8948E-03   '
               '9.7155E+00  0.000E+00  0.000E+00  0.000E+00  1.15522E+02  '
               '2.372E+00  4.650E+00  1.008E-03  2.976E-03 -8.094E-05\n',
               '-   1    4   91     1    91    9.7155E+00  2.8941E-03   '
               '9.7126E+00  0.000E+00  0.000E+00  0.000E+00  1.15222E+02  '
               '2.372E+00  4.650E+00  1.008E-03  2.988E-03 -9.357E-05\n',
               '-   1    4   92     1    92    9.7126E+00  2.8934E-03   '
               '9.7097E+00  0.000E+00  0.000E+00  0.000E+00  1.14921E+02  '
               '2.371E+00  4.650E+00  1.007E-03  3.004E-03 -1.102E-04\n',
               '-   1    4   93     1    93    9.7097E+00  2.8928E-03   '
               '9.7068E+00  0.000E+00  0.000E+00  0.000E+00  1.14621E+02  '
               '2.371E+00  4.649E+00  1.007E-03  3.010E-03 -1.175E-04\n',
               '-   1    4   94     1    94    9.7068E+00  2.8921E-03   '
               '9.7039E+00  0.000E+00  0.000E+00  0.000E+00  1.14321E+02  '
               '2.371E+00  4.649E+00  1.007E-03  3.009E-03 -1.167E-04\n',
               '-   1    4   95     1    95    9.7039E+00  2.8914E-03   '
               '9.7010E+00  0.000E+00  0.000E+00  0.000E+00  1.14020E+02  '
               '2.370E+00  4.648E+00  1.007E-03  3.007E-03 -1.159E-04\n',
               '-   1    4   96     1    96    9.7010E+00  2.8907E-03   '
               '9.6981E+00  0.000E+00  0.000E+00  0.000E+00  1.13720E+02  '
               '2.370E+00  4.648E+00  1.007E-03  3.006E-03 -1.150E-04\n',
               '-   1    4   97     1    97    9.6981E+00  2.8900E-03   '
               '9.6952E+00  0.000E+00  0.000E+00  0.000E+00  1.13420E+02  '
               '2.370E+00  4.647E+00  1.007E-03  3.004E-03 -1.140E-04\n',
               '-   1    4   98     1    98    9.6952E+00  2.8893E-03   '
               '9.6924E+00  0.000E+00  0.000E+00  0.000E+00  1.13119E+02  '
               '2.369E+00  4.647E+00  1.007E-03  3.002E-03 -1.130E-04\n',
               '-   1    4   99     1    99    9.6924E+00  2.8886E-03   '
               '9.6895E+00  0.000E+00  0.000E+00  0.000E+00  1.12819E+02  '
               '2.369E+00  4.647E+00  1.007E-03  3.001E-03 -1.120E-04\n',
               '-   1    4  100     1   100    9.6895E+00  2.8879E-03   '
               '9.6866E+00  0.000E+00  0.000E+00  0.000E+00  1.12518E+02  '
               '2.368E+00  4.646E+00  1.007E-03  2.999E-03 -1.109E-04\n',
               '-\n',
               '-\n',
               '-\n',
               '-1\n',
               '-  VOLUMETRIC BUDGET FOR UNSATURATED ZONE BENEATH STREAMS AT '
               'END OF TIME STEP    30 STRESS PERIOD  43\n',
               '-  '
               '------------------------------------------------------------------------------------------------\n',
               '-\n',
               '-    CUMULATIVE VOLUMES             L**3    RATES FOR THIS '
               'TIME STEP         L**3/T\n',
               '-    ------------------                     '
               '------------------------\n',
               '-\n',
               '-\n',
               '-          STREAM LOSS =     33989880.0000            STREAM '
               'LOSS =            0.2923\n',
               '-    CHANGE IN STORAGE =       556803.2500      CHANGE IN '
               'STORAGE =       -6.8887E-03\n',
               '-       RECHARGE TO GW =     33437416.0000         RECHARGE TO '
               'GW =            0.2991\n',
               '-\n',
               '-             TOTAL IN =     33989880.0000               TOTAL '
               'IN =            0.2991\n',
               '-\n',
               '-            TOTAL OUT =     33994220.0000              TOTAL '
               'OUT =            0.2991\n',
               '-\n',
               '-             IN - OUT =        -4340.0000               IN - '
               'OUT =        8.9407E-08\n',
               '-\n',
               '-  PERCENT DISCREPANCY =           -0.00      PERCENT '
               'DISCREPANCY =             0.00\n',
               '-\n',
               '-\n',
               '-\n',
               '-1\n',
               '-  VOLUMETRIC BUDGET FOR ENTIRE MODEL AT END OF TIME STEP   '
               '30, STRESS PERIOD  43\n',
               '-  '
               '------------------------------------------------------------------------------\n',
               '-\n',
               '-     CUMULATIVE VOLUMES      L**3       RATES FOR THIS TIME '
               'STEP      L**3/T\n',
               '-     ------------------                 '
               '------------------------\n',
               '-\n',
               '-           IN:                                      IN:\n',
               '-           ---                                      ---\n',
               '-             STORAGE =    16606723.0000               STORAGE '
               '=           0.0000\n',
               '-       CONSTANT HEAD =           0.0000         CONSTANT HEAD '
               '=           0.0000\n',
               '-     HEAD DEP BOUNDS =           0.0000       HEAD DEP BOUNDS '
               '=           0.0000\n',
               '-      STREAM LEAKAGE =    33436822.0000        STREAM LEAKAGE '
               '=           0.2991\n',
               '-\n',
               '-            TOTAL IN =    50043544.0000              TOTAL IN '
               '=           0.2991\n',
               '-\n',
               '-          OUT:                                     OUT:\n',
               '-          ----                                     ----\n',
               '-             STORAGE =    16993416.0000               STORAGE '
               '=       9.0563E-02\n',
               '-       CONSTANT HEAD =           0.0000         CONSTANT HEAD '
               '=           0.0000\n',
               '-     HEAD DEP BOUNDS =    33049682.0000       HEAD DEP BOUNDS '
               '=           0.2084\n',
               '-      STREAM LEAKAGE =           0.0000        STREAM LEAKAGE '
               '=           0.0000\n',
               '-\n',
               '-           TOTAL OUT =    50043096.0000             TOTAL OUT '
               '=           0.2990\n',
               '-\n',
               '-            IN - OUT =         448.0000              IN - OUT '
               '=       1.8287E-04\n',
               '-\n',
               '- PERCENT DISCREPANCY =           0.00     PERCENT DISCREPANCY '
               '=           0.06\n',
               '-\n',
               '-\n',
               '-\n',
               '-\n',
               '-\n',
               '-\n',
               '-         TIME SUMMARY AT END OF TIME STEP   30 IN STRESS '
               'PERIOD   43\n',
               '-                    SECONDS     MINUTES      HOURS       '
               'DAYS        YEARS\n',
               '-                    '
               '-----------------------------------------------------------\n',
               '-   TIME STEP LENGTH 2.49961E+05  4166.0      69.434      '
               '2.8931     7.92080E-03\n',
               '- STRESS PERIOD TIME 2.59200E+06  43200.      720.00      '
               '30.000     8.21355E-02\n',
               '-         TOTAL TIME 1.11456E+08 1.85760E+06  30960.      '
               '1290.0      3.5318    \n',
               '-1\n',
               '-1\n',
               '-                            STRESS PERIOD NO.   44, LENGTH '
               '=   2592000.    \n',
               '-                            '
               '-----------------------------------------------\n',
               '-\n',
               '-                              NUMBER OF TIME STEPS =    30\n',
               '-\n',
               '-                               MULTIPLIER FOR DELT =     '
               '1.100\n',
               '-\n',
               '-                            INITIAL TIME STEP SIZE =   '
               '15757.40    \n',
               '-\n',
               '- REUSING NON-PARAMETER GHB CELLS FROM LAST STRESS PERIOD\n',
               '-\n',
               '-      7 GHB CELLS\n',
               '- \n',
               '- SOLVING FOR HEAD \n',
               '-\n',
               '- NO OUTPUT CONTROL FOR STRESS PERIOD   44   TIME STEP    1\n',
               '- \n',
               '- SOLVING FOR HEAD \n',
               '-\n',
               '- NO OUTPUT CONTROL FOR STRESS PERIOD   44   TIME STEP    2\n',
               '- \n',
               '- SOLVING FOR HEAD \n',
               '-\n',
               '- NO OUTPUT CONTROL FOR STRESS PERIOD   44   TIME STEP    3\n',
               '- \n',
               '- SOLVING FOR HEAD \n',
               '-\n',
               '- NO OUTPUT CONTROL FOR STRESS PERIOD   44   TIME STEP    4\n',
               '- \n',
               '- SOLVING FOR HEAD \n',
               '-\n',
               '- NO OUTPUT CONTROL FOR STRESS PERIOD   44   TIME STEP    5\n',
               '- \n',
               '- SOLVING FOR HEAD \n',
               '-\n',
               '- NO OUTPUT CONTROL FOR STRESS PERIOD   44   TIME STEP    6\n',
               '- \n',
               '- SOLVING FOR HEAD \n',
               '-\n',
               '- NO OUTPUT CONTROL FOR STRESS PERIOD   44   TIME STEP    7\n',
               '- \n',
               '- SOLVING FOR HEAD \n',
               '-\n',
               '- NO OUTPUT CONTROL FOR STRESS PERIOD   44   TIME STEP    8\n',
               '- \n',
               '- SOLVING FOR HEAD \n',
               '-\n',
               '- NO OUTPUT CONTROL FOR STRESS PERIOD   44   TIME STEP    9\n',
               '- \n',
               '- SOLVING FOR HEAD \n',
               '-\n',
               '- NO OUTPUT CONTROL FOR STRESS PERIOD   44   TIME STEP   10\n',
               '- \n',
               '- SOLVING FOR HEAD \n',
               '-\n',
               '- NO OUTPUT CONTROL FOR STRESS PERIOD   44   TIME STEP   11\n',
               '- \n',
               '- SOLVING FOR HEAD \n',
               '-\n',
               '- NO OUTPUT CONTROL FOR STRESS PERIOD   44   TIME STEP   12\n',
               '- \n',
               '- SOLVING FOR HEAD \n',
               '-\n',
               '- NO OUTPUT CONTROL FOR STRESS PERIOD   44   TIME STEP   13\n',
               '- \n',
               '- SOLVING FOR HEAD \n',
               '-\n',
               '- NO OUTPUT CONTROL FOR STRESS PERIOD   44   TIME STEP   14\n',
               '- \n',
               '- SOLVING FOR HEAD \n',
               '-\n',
               '- NO OUTPUT CONTROL FOR STRESS PERIOD   44   TIME STEP   15\n',
               '- \n',
               '- SOLVING FOR HEAD \n',
               '-\n',
               '- NO OUTPUT CONTROL FOR STRESS PERIOD   44   TIME STEP   16\n',
               '- \n',
               '- SOLVING FOR HEAD \n',
               '-\n',
               '- NO OUTPUT CONTROL FOR STRESS PERIOD   44   TIME STEP   17\n',
               '- \n',
               '- SOLVING FOR HEAD \n',
               '-\n',
               '- NO OUTPUT CONTROL FOR STRESS PERIOD   44   TIME STEP   18\n',
               '- \n',
               '- SOLVING FOR HEAD \n',
               '-\n',
               '- NO OUTPUT CONTROL FOR STRESS PERIOD   44   TIME STEP   19\n',
               '- \n',
               '- SOLVING FOR HEAD \n',
               '-\n',
               '- NO OUTPUT CONTROL FOR STRESS PERIOD   44   TIME STEP   20\n',
               '- \n',
               '- SOLVING FOR HEAD \n',
               '-\n',
               '- NO OUTPUT CONTROL FOR STRESS PERIOD   44   TIME STEP   21\n',
               '- \n',
               '- SOLVING FOR HEAD \n',
               '-\n',
               '- NO OUTPUT CONTROL FOR STRESS PERIOD   44   TIME STEP   22\n',
               '- \n',
               '- SOLVING FOR HEAD \n',
               '-\n',
               '- NO OUTPUT CONTROL FOR STRESS PERIOD   44   TIME STEP   23\n',
               '- \n',
               '- SOLVING FOR HEAD \n',
               '-\n',
               '- NO OUTPUT CONTROL FOR STRESS PERIOD   44   TIME STEP   24\n',
               '- \n',
               '- SOLVING FOR HEAD \n',
               '-\n',
               '- NO OUTPUT CONTROL FOR STRESS PERIOD   44   TIME STEP   25\n',
               '- \n',
               '- SOLVING FOR HEAD \n',
               '-\n',
               '- NO OUTPUT CONTROL FOR STRESS PERIOD   44   TIME STEP   26\n',
               '- \n',
               '- SOLVING FOR HEAD \n',
               '-\n',
               '- NO OUTPUT CONTROL FOR STRESS PERIOD   44   TIME STEP   27\n',
               '- \n',
               '- SOLVING FOR HEAD \n',
               '-\n',
               '- NO OUTPUT CONTROL FOR STRESS PERIOD   44   TIME STEP   28\n',
               '- \n',
               '- SOLVING FOR HEAD \n',
               '-\n',
               '- NO OUTPUT CONTROL FOR STRESS PERIOD   44   TIME STEP   29\n',
               '- \n',
               '- SOLVING FOR HEAD \n',
               '-\n',
               '- NO OUTPUT CONTROL FOR STRESS PERIOD   44   TIME STEP   30\n',
               '-\n',
               '-\n',
               '-\n',
               '- STREAM LISTING     PERIOD     44   STEP       30\n',
               '-\n',
               '- LAYER ROW COL. STREAM  RCH.   FLOW INTO    STREAM     FLOW '
               'OUT OF   OVRLND.    DIRECT     STREAM      STREAM      '
               'STREAM     STREAM  STREAMBED   FLOW TO   CHNG. UNSAT. \n',
               '-                SEG.NO.  NO.   STRM. RCH.    LOSS       STRM. '
               'RCH.   RUNOFF     PRECIP       ET         HEAD        '
               'DEPTH      WIDTH  CONDCTNC.   WAT. TAB.\n',
               '-\n',
               '-   1    4    1     1     1    6.5089E+00  2.1037E-03   '
               '6.5068E+00  0.000E+00  0.000E+00  0.000E+00  1.41783E+02  '
               '1.933E+00  4.125E+00  8.644E-04  2.177E-03 -7.283E-05\n',
               '-   1    4    2     1     2    6.5068E+00  2.1032E-03   '
               '6.5047E+00  0.000E+00  0.000E+00  0.000E+00  1.41483E+02  '
               '1.933E+00  4.125E+00  8.643E-04  2.176E-03 -7.276E-05\n',
               '-   1    4    3     1     3    6.5047E+00  2.1026E-03   '
               '6.5026E+00  0.000E+00  0.000E+00  0.000E+00  1.41182E+02  '
               '1.932E+00  4.124E+00  8.642E-04  2.175E-03 -7.268E-05\n',
               '-   1    4    4     1     4    6.5026E+00  2.1021E-03   '
               '6.5005E+00  0.000E+00  0.000E+00  0.000E+00  1.40882E+02  '
               '1.932E+00  4.124E+00  8.641E-04  2.175E-03 -7.259E-05\n',
               '-   1    4    5     1     5    6.5005E+00  2.1016E-03   '
               '6.4984E+00  0.000E+00  0.000E+00  0.000E+00  1.40582E+02  '
               '1.932E+00  4.124E+00  8.640E-04  2.172E-03 -7.073E-05\n',
               '-   1    4    6     1     6    6.4984E+00  2.1010E-03   '
               '6.4963E+00  0.000E+00  0.000E+00  0.000E+00  1.40281E+02  '
               '1.931E+00  4.123E+00  8.639E-04  2.170E-03 -6.863E-05\n',
               '-   1    4    7     1     7    6.4963E+00  2.1005E-03   '
               '6.4942E+00  0.000E+00  0.000E+00  0.000E+00  1.39981E+02  '
               '1.931E+00  4.123E+00  8.638E-04  2.167E-03 -6.656E-05\n',
               '-   1    4    8     1     8    6.4942E+00  2.1000E-03   '
               '6.4921E+00  0.000E+00  0.000E+00  0.000E+00  1.39681E+02  '
               '1.931E+00  4.123E+00  8.637E-04  2.165E-03 -6.453E-05\n',
               '-   1    4    9     1     9    6.4921E+00  2.0995E-03   '
               '6.4900E+00  0.000E+00  0.000E+00  0.000E+00  1.39380E+02  '
               '1.930E+00  4.122E+00  8.636E-04  2.162E-03 -6.252E-05\n',
               '-   1    4   10     1    10    6.4900E+00  2.0989E-03   '
               '6.4879E+00  0.000E+00  0.000E+00  0.000E+00  1.39080E+02  '
               '1.930E+00  4.122E+00  8.635E-04  2.159E-03 -6.055E-05\n',
               '-   1    4   11     1    11    6.4879E+00  2.0984E-03   '
               '6.4858E+00  0.000E+00  0.000E+00  0.000E+00  1.38780E+02  '
               '1.930E+00  4.121E+00  8.634E-04  2.156E-03 -5.760E-05\n',
               '-   1    4   12     1    12    6.4858E+00  2.0979E-03   '
               '6.4837E+00  0.000E+00  0.000E+00  0.000E+00  1.38479E+02  '
               '1.929E+00  4.121E+00  8.633E-04  2.146E-03 -4.846E-05\n',
               '-   1    4   13     1    13    6.4837E+00  2.0973E-03   '
               '6.4816E+00  0.000E+00  0.000E+00  0.000E+00  1.38179E+02  '
               '1.929E+00  4.121E+00  8.632E-04  2.137E-03 -3.954E-05\n',
               '-   1    4   14     1    14    6.4816E+00  2.0968E-03   '
               '6.4795E+00  0.000E+00  0.000E+00  0.000E+00  1.37879E+02  '
               '1.929E+00  4.120E+00  8.631E-04  2.128E-03 -3.144E-05\n',
               '-   1    4   15     1    15    6.4795E+00  2.0963E-03   '
               '6.4774E+00  0.000E+00  0.000E+00  0.000E+00  1.37579E+02  '
               '1.929E+00  4.120E+00  8.630E-04  2.126E-03 -2.971E-05\n',
               '-   1    4   16     1    16    6.4774E+00  2.0957E-03   '
               '6.4753E+00  0.000E+00  0.000E+00  0.000E+00  1.37278E+02  '
               '1.928E+00  4.119E+00  8.629E-04  2.124E-03 -2.863E-05\n',
               '-   1    4   17     1    17    6.4753E+00  2.0952E-03   '
               '6.4732E+00  0.000E+00  0.000E+00  0.000E+00  1.36978E+02  '
               '1.928E+00  4.119E+00  8.627E-04  2.124E-03 -2.848E-05\n',
               '-   1    4   18     1    18    6.4732E+00  2.0947E-03   '
               '6.4711E+00  0.000E+00  0.000E+00  0.000E+00  1.36678E+02  '
               '1.928E+00  4.119E+00  8.626E-04  2.123E-03 -2.830E-05\n',
               '-   1    4   19     1    19    6.4711E+00  2.0941E-03   '
               '6.4690E+00  0.000E+00  0.000E+00  0.000E+00  1.36377E+02  '
               '1.927E+00  4.118E+00  8.625E-04  2.122E-03 -2.813E-05\n',
               '-   1    4   20     1    20    6.4690E+00  2.0936E-03   '
               '6.4669E+00  0.000E+00  0.000E+00  0.000E+00  1.36077E+02  '
               '1.927E+00  4.118E+00  8.624E-04  2.122E-03 -2.794E-05\n',
               '-   1    4   21     1    21    6.4669E+00  2.0931E-03   '
               '6.4648E+00  0.000E+00  0.000E+00  0.000E+00  1.35777E+02  '
               '1.927E+00  4.118E+00  8.623E-04  2.121E-03 -2.775E-05\n',
               '-   1    4   22     1    22    6.4648E+00  2.0925E-03   '
               '6.4627E+00  0.000E+00  0.000E+00  0.000E+00  1.35476E+02  '
               '1.926E+00  4.117E+00  8.622E-04  2.120E-03 -2.755E-05\n',
               '-   1    4   23     1    23    6.4627E+00  2.0920E-03   '
               '6.4606E+00  0.000E+00  0.000E+00  0.000E+00  1.35176E+02  '
               '1.926E+00  4.117E+00  8.621E-04  2.119E-03 -2.735E-05\n',
               '-   1    4   24     1    24    6.4606E+00  2.0915E-03   '
               '6.4585E+00  0.000E+00  0.000E+00  0.000E+00  1.34876E+02  '
               '1.926E+00  4.116E+00  8.620E-04  2.119E-03 -2.714E-05\n',
               '-   1    4   25     1    25    6.4585E+00  2.0910E-03   '
               '6.4564E+00  0.000E+00  0.000E+00  0.000E+00  1.34575E+02  '
               '1.925E+00  4.116E+00  8.619E-04  2.118E-03 -2.692E-05\n',
               '-   1    4   26     1    26    6.4564E+00  2.0904E-03   '
               '6.4544E+00  0.000E+00  0.000E+00  0.000E+00  1.34275E+02  '
               '1.925E+00  4.116E+00  8.618E-04  2.117E-03 -2.671E-05\n',
               '-   1    4   27     1    27    6.4544E+00  2.0899E-03   '
               '6.4523E+00  0.000E+00  0.000E+00  0.000E+00  1.33975E+02  '
               '1.925E+00  4.115E+00  8.617E-04  2.116E-03 -2.648E-05\n',
               '-   1    4   28     1    28    6.4523E+00  2.0894E-03   '
               '6.4502E+00  0.000E+00  0.000E+00  0.000E+00  1.33674E+02  '
               '1.924E+00  4.115E+00  8.616E-04  2.116E-03 -2.625E-05\n',
               '-   1    4   29     1    29    6.4502E+00  2.0888E-03   '
               '6.4481E+00  0.000E+00  0.000E+00  0.000E+00  1.33374E+02  '
               '1.924E+00  4.114E+00  8.615E-04  2.115E-03 -2.602E-05\n',
               '-   1    4   30     1    30    6.4481E+00  2.0883E-03   '
               '6.4460E+00  0.000E+00  0.000E+00  0.000E+00  1.33074E+02  '
               '1.924E+00  4.114E+00  8.614E-04  2.114E-03 -2.579E-05\n',
               '-   1    4   31     1    31    6.4460E+00  2.0878E-03   '
               '6.4439E+00  0.000E+00  0.000E+00  0.000E+00  1.32773E+02  '
               '1.923E+00  4.114E+00  8.613E-04  2.113E-03 -2.555E-05\n',
               '-   1    4   32     1    32    6.4439E+00  2.0872E-03   '
               '6.4418E+00  0.000E+00  0.000E+00  0.000E+00  1.32473E+02  '
               '1.923E+00  4.113E+00  8.612E-04  2.113E-03 -2.532E-05\n',
               '-   1    4   33     1    33    6.4418E+00  2.0867E-03   '
               '6.4397E+00  0.000E+00  0.000E+00  0.000E+00  1.32173E+02  '
               '1.923E+00  4.113E+00  8.611E-04  2.112E-03 -2.508E-05\n',
               '-   1    4   34     1    34    6.4397E+00  2.0862E-03   '
               '6.4377E+00  0.000E+00  0.000E+00  0.000E+00  1.31872E+02  '
               '1.922E+00  4.113E+00  8.610E-04  2.111E-03 -2.484E-05\n',
               '-   1    4   35     1    35    6.4377E+00  2.0857E-03   '
               '6.4356E+00  0.000E+00  0.000E+00  0.000E+00  1.31572E+02  '
               '1.922E+00  4.112E+00  8.609E-04  2.110E-03 -2.459E-05\n',
               '-   1    4   36     1    36    6.4356E+00  2.0851E-03   '
               '6.4335E+00  0.000E+00  0.000E+00  0.000E+00  1.31272E+02  '
               '1.922E+00  4.112E+00  8.608E-04  2.109E-03 -2.435E-05\n',
               '-   1    4   37     1    37    6.4335E+00  2.0846E-03   '
               '6.4314E+00  0.000E+00  0.000E+00  0.000E+00  1.30971E+02  '
               '1.921E+00  4.111E+00  8.607E-04  2.109E-03 -2.411E-05\n',
               '-   1    4   38     1    38    6.4314E+00  2.0841E-03   '
               '6.4293E+00  0.000E+00  0.000E+00  0.000E+00  1.30671E+02  '
               '1.921E+00  4.111E+00  8.605E-04  2.108E-03 -2.387E-05\n',
               '-   1    4   39     1    39    6.4293E+00  2.0835E-03   '
               '6.4272E+00  0.000E+00  0.000E+00  0.000E+00  1.30371E+02  '
               '1.921E+00  4.111E+00  8.604E-04  2.107E-03 -2.363E-05\n',
               '-   1    4   40     1    40    6.4272E+00  2.0830E-03   '
               '6.4251E+00  0.000E+00  0.000E+00  0.000E+00  1.30070E+02  '
               '1.921E+00  4.110E+00  8.603E-04  2.106E-03 -2.339E-05\n',
               '-   1    4   41     1    41    6.4251E+00  2.0825E-03   '
               '6.4231E+00  0.000E+00  0.000E+00  0.000E+00  1.29770E+02  '
               '1.920E+00  4.110E+00  8.602E-04  2.106E-03 -2.315E-05\n',
               '-   1    4   42     1    42    6.4231E+00  2.0820E-03   '
               '6.4210E+00  0.000E+00  0.000E+00  0.000E+00  1.29470E+02  '
               '1.920E+00  4.109E+00  8.601E-04  2.105E-03 -2.292E-05\n',
               '-   1    4   43     1    43    6.4210E+00  2.0814E-03   '
               '6.4189E+00  0.000E+00  0.000E+00  0.000E+00  1.29170E+02  '
               '1.920E+00  4.109E+00  8.600E-04  2.104E-03 -2.269E-05\n',
               '-   1    4   44     1    44    6.4189E+00  2.0809E-03   '
               '6.4168E+00  0.000E+00  0.000E+00  0.000E+00  1.28869E+02  '
               '1.919E+00  4.109E+00  8.599E-04  2.103E-03 -2.247E-05\n',
               '-   1    4   45     1    45    6.4168E+00  2.0804E-03   '
               '6.4147E+00  0.000E+00  0.000E+00  0.000E+00  1.28569E+02  '
               '1.919E+00  4.108E+00  8.598E-04  2.103E-03 -2.225E-05\n',
               '-   1    4   46     1    46    6.4147E+00  2.0798E-03   '
               '6.4127E+00  0.000E+00  0.000E+00  0.000E+00  1.28269E+02  '
               '1.919E+00  4.108E+00  8.597E-04  2.102E-03 -2.203E-05\n',
               '-   1    4   47     1    47    6.4127E+00  2.0793E-03   '
               '6.4106E+00  0.000E+00  0.000E+00  0.000E+00  1.27968E+02  '
               '1.918E+00  4.108E+00  8.596E-04  2.101E-03 -2.182E-05\n',
               '-   1    4   48     1    48    6.4106E+00  2.0788E-03   '
               '6.4085E+00  0.000E+00  0.000E+00  0.000E+00  1.27668E+02  '
               '1.918E+00  4.107E+00  8.595E-04  2.100E-03 -2.161E-05\n',
               '-   1    4   49     1    49    6.4085E+00  2.0783E-03   '
               '6.4064E+00  0.000E+00  0.000E+00  0.000E+00  1.27368E+02  '
               '1.918E+00  4.107E+00  8.594E-04  2.100E-03 -2.142E-05\n',
               '-   1    4   50     1    50    6.4064E+00  2.0777E-03   '
               '6.4043E+00  0.000E+00  0.000E+00  0.000E+00  1.27067E+02  '
               '1.917E+00  4.106E+00  8.593E-04  2.099E-03 -2.122E-05\n',
               '-   1    4   51     1    51    6.4043E+00  2.0772E-03   '
               '6.4023E+00  0.000E+00  0.000E+00  0.000E+00  1.26767E+02  '
               '1.917E+00  4.106E+00  8.592E-04  2.098E-03 -2.104E-05\n',
               '-   1    4   52     1    52    6.4023E+00  2.0767E-03   '
               '6.4002E+00  0.000E+00  0.000E+00  0.000E+00  1.26467E+02  '
               '1.917E+00  4.106E+00  8.591E-04  2.098E-03 -2.086E-05\n',
               '-   1    4   53     1    53    6.4002E+00  2.0762E-03   '
               '6.3981E+00  0.000E+00  0.000E+00  0.000E+00  1.26166E+02  '
               '1.916E+00  4.105E+00  8.590E-04  2.097E-03 -2.069E-05\n',
               '-   1    4   54     1    54    6.3981E+00  2.0756E-03   '
               '6.3960E+00  0.000E+00  0.000E+00  0.000E+00  1.25866E+02  '
               '1.916E+00  4.105E+00  8.589E-04  2.096E-03 -2.053E-05\n',
               '-   1    4   55     1    55    6.3960E+00  2.0751E-03   '
               '6.3940E+00  0.000E+00  0.000E+00  0.000E+00  1.25566E+02  '
               '1.916E+00  4.105E+00  8.588E-04  2.095E-03 -2.038E-05\n',
               '-   1    4   56     1    56    6.3940E+00  2.0746E-03   '
               '6.3919E+00  0.000E+00  0.000E+00  0.000E+00  1.25265E+02  '
               '1.915E+00  4.104E+00  8.587E-04  2.095E-03 -2.025E-05\n',
               '-   1    4   57     1    57    6.3919E+00  2.0740E-03   '
               '6.3898E+00  0.000E+00  0.000E+00  0.000E+00  1.24965E+02  '
               '1.915E+00  4.104E+00  8.586E-04  2.094E-03 -2.012E-05\n',
               '-   1    4   58     1    58    6.3898E+00  2.0735E-03   '
               '6.3877E+00  0.000E+00  0.000E+00  0.000E+00  1.24665E+02  '
               '1.915E+00  4.103E+00  8.585E-04  2.094E-03 -2.000E-05\n',
               '-   1    4   59     1    59    6.3877E+00  2.0730E-03   '
               '6.3857E+00  0.000E+00  0.000E+00  0.000E+00  1.24364E+02  '
               '1.914E+00  4.103E+00  8.584E-04  2.093E-03 -1.989E-05\n',
               '-   1    4   60     1    60    6.3857E+00  2.0725E-03   '
               '6.3836E+00  0.000E+00  0.000E+00  0.000E+00  1.24064E+02  '
               '1.914E+00  4.103E+00  8.583E-04  2.092E-03 -1.991E-05\n',
               '-   1    4   61     1    61    6.3836E+00  2.0719E-03   '
               '6.3815E+00  0.000E+00  0.000E+00  0.000E+00  1.23764E+02  '
               '1.914E+00  4.102E+00  8.581E-04  2.094E-03 -2.189E-05\n',
               '-   1    4   62     1    62    6.3815E+00  2.0714E-03   '
               '6.3795E+00  0.000E+00  0.000E+00  0.000E+00  1.23463E+02  '
               '1.913E+00  4.102E+00  8.580E-04  2.095E-03 -2.400E-05\n',
               '-   1    4   63     1    63    6.3795E+00  2.0709E-03   '
               '6.3774E+00  0.000E+00  0.000E+00  0.000E+00  1.23163E+02  '
               '1.913E+00  4.101E+00  8.579E-04  2.097E-03 -2.626E-05\n',
               '-   1    4   64     1    64    6.3774E+00  2.0704E-03   '
               '6.3753E+00  0.000E+00  0.000E+00  0.000E+00  1.22863E+02  '
               '1.913E+00  4.101E+00  8.578E-04  2.099E-03 -2.866E-05\n',
               '-   1    4   65     1    65    6.3753E+00  2.0698E-03   '
               '6.3732E+00  0.000E+00  0.000E+00  0.000E+00  1.22563E+02  '
               '1.913E+00  4.101E+00  8.577E-04  2.101E-03 -3.120E-05\n',
               '-   1    4   66     1    66    6.3732E+00  2.0693E-03   '
               '6.3712E+00  0.000E+00  0.000E+00  0.000E+00  1.22262E+02  '
               '1.912E+00  4.100E+00  8.576E-04  2.103E-03 -3.387E-05\n',
               '-   1    4   67     1    67    6.3712E+00  2.0688E-03   '
               '6.3691E+00  0.000E+00  0.000E+00  0.000E+00  1.21962E+02  '
               '1.912E+00  4.100E+00  8.575E-04  2.105E-03 -3.668E-05\n',
               '-   1    4   68     1    68    6.3691E+00  2.0683E-03   '
               '6.3670E+00  0.000E+00  0.000E+00  0.000E+00  1.21662E+02  '
               '1.912E+00  4.100E+00  8.574E-04  2.106E-03 -3.761E-05\n',
               '-   1    4   69     1    69    6.3670E+00  2.0677E-03   '
               '6.3650E+00  0.000E+00  0.000E+00  0.000E+00  1.21361E+02  '
               '1.911E+00  4.099E+00  8.573E-04  2.105E-03 -3.755E-05\n',
               '-   1    4   70     1    70    6.3650E+00  2.0672E-03   '
               '6.3629E+00  0.000E+00  0.000E+00  0.000E+00  1.21061E+02  '
               '1.911E+00  4.099E+00  8.572E-04  2.105E-03 -3.748E-05\n',
               '-   1    4   71     1    71    6.3629E+00  2.0667E-03   '
               '6.3608E+00  0.000E+00  0.000E+00  0.000E+00  1.20761E+02  '
               '1.911E+00  4.098E+00  8.571E-04  2.104E-03 -3.742E-05\n',
               '-   1    4   72     1    72    6.3608E+00  2.0662E-03   '
               '6.3588E+00  0.000E+00  0.000E+00  0.000E+00  1.20460E+02  '
               '1.910E+00  4.098E+00  8.570E-04  2.111E-03 -4.510E-05\n',
               '-   1    4   73     1    73    6.3588E+00  2.0656E-03   '
               '6.3567E+00  0.000E+00  0.000E+00  0.000E+00  1.20160E+02  '
               '1.910E+00  4.098E+00  8.569E-04  2.120E-03 -5.467E-05\n',
               '-   1    4   74     1    74    6.3567E+00  2.0651E-03   '
               '6.3546E+00  0.000E+00  0.000E+00  0.000E+00  1.19860E+02  '
               '1.910E+00  4.097E+00  8.568E-04  2.125E-03 -5.980E-05\n',
               '-   1    4   75     1    75    6.3546E+00  2.0646E-03   '
               '6.3526E+00  0.000E+00  0.000E+00  0.000E+00  1.19559E+02  '
               '1.909E+00  4.097E+00  8.567E-04  2.128E-03 -6.353E-05\n',
               '-   1    4   76     1    76    6.3526E+00  2.0641E-03   '
               '6.3505E+00  0.000E+00  0.000E+00  0.000E+00  1.19259E+02  '
               '1.909E+00  4.096E+00  8.566E-04  2.131E-03 -6.740E-05\n',
               '-   1    4   77     1    77    6.3505E+00  2.0635E-03   '
               '6.3484E+00  0.000E+00  0.000E+00  0.000E+00  1.18959E+02  '
               '1.909E+00  4.096E+00  8.565E-04  2.135E-03 -7.141E-05\n',
               '-   1    4   78     1    78    6.3484E+00  2.0630E-03   '
               '6.3464E+00  0.000E+00  0.000E+00  0.000E+00  1.18658E+02  '
               '1.908E+00  4.096E+00  8.564E-04  2.139E-03 -7.554E-05\n',
               '-   1    4   79     1    79    6.3464E+00  2.0625E-03   '
               '6.3443E+00  0.000E+00  0.000E+00  0.000E+00  1.18358E+02  '
               '1.908E+00  4.095E+00  8.563E-04  2.141E-03 -7.809E-05\n',
               '-   1    4   80     1    80    6.3443E+00  2.0620E-03   '
               '6.3423E+00  0.000E+00  0.000E+00  0.000E+00  1.18058E+02  '
               '1.908E+00  4.095E+00  8.562E-04  2.140E-03 -7.795E-05\n',
               '-   1    4   81     1    81    6.3423E+00  2.0614E-03   '
               '6.3402E+00  0.000E+00  0.000E+00  0.000E+00  1.17757E+02  '
               '1.907E+00  4.095E+00  8.561E-04  2.139E-03 -7.777E-05\n',
               '-   1    4   82     1    82    6.3402E+00  2.0609E-03   '
               '6.3381E+00  0.000E+00  0.000E+00  0.000E+00  1.17457E+02  '
               '1.907E+00  4.094E+00  8.560E-04  2.138E-03 -7.758E-05\n',
               '-   1    4   83     1    83    6.3381E+00  2.0604E-03   '
               '6.3361E+00  0.000E+00  0.000E+00  0.000E+00  1.17157E+02  '
               '1.907E+00  4.094E+00  8.559E-04  2.140E-03 -7.943E-05\n',
               '-   1    4   84     1    84    6.3361E+00  2.0599E-03   '
               '6.3340E+00  0.000E+00  0.000E+00  0.000E+00  1.16856E+02  '
               '1.906E+00  4.093E+00  8.558E-04  2.144E-03 -8.411E-05\n',
               '-   1    4   85     1    85    6.3340E+00  2.0593E-03   '
               '6.3320E+00  0.000E+00  0.000E+00  0.000E+00  1.16556E+02  '
               '1.906E+00  4.093E+00  8.556E-04  2.148E-03 -8.895E-05\n',
               '-   1    4   86     1    86    6.3320E+00  2.0588E-03   '
               '6.3299E+00  0.000E+00  0.000E+00  0.000E+00  1.16256E+02  '
               '1.906E+00  4.093E+00  8.555E-04  2.153E-03 -9.394E-05\n',
               '-   1    4   87     1    87    6.3299E+00  2.0583E-03   '
               '6.3278E+00  0.000E+00  0.000E+00  0.000E+00  1.15955E+02  '
               '1.905E+00  4.092E+00  8.554E-04  2.157E-03 -9.907E-05\n',
               '-   1    4   88     1    88    6.3278E+00  2.0578E-03   '
               '6.3258E+00  0.000E+00  0.000E+00  0.000E+00  1.15655E+02  '
               '1.905E+00  4.092E+00  8.553E-04  2.157E-03 -9.915E-05\n',
               '-   1    4   89     1    89    6.3258E+00  2.0573E-03   '
               '6.3237E+00  0.000E+00  0.000E+00  0.000E+00  1.15355E+02  '
               '1.905E+00  4.092E+00  8.552E-04  2.156E-03 -9.875E-05\n',
               '-   1    4   90     1    90    6.3237E+00  2.0567E-03   '
               '6.3217E+00  0.000E+00  0.000E+00  0.000E+00  1.15055E+02  '
               '1.905E+00  4.091E+00  8.551E-04  2.156E-03 -9.928E-05\n',
               '-   1    4   91     1    91    6.3217E+00  2.0562E-03   '
               '6.3196E+00  0.000E+00  0.000E+00  0.000E+00  1.14754E+02  '
               '1.904E+00  4.091E+00  8.550E-04  2.165E-03 -1.083E-04\n',
               '-   1    4   92     1    92    6.3196E+00  2.0557E-03   '
               '6.3176E+00  0.000E+00  0.000E+00  0.000E+00  1.14454E+02  '
               '1.904E+00  4.090E+00  8.549E-04  2.170E-03 -1.140E-04\n',
               '-   1    4   93     1    93    6.3176E+00  2.0552E-03   '
               '6.3155E+00  0.000E+00  0.000E+00  0.000E+00  1.14154E+02  '
               '1.904E+00  4.090E+00  8.548E-04  2.175E-03 -1.200E-04\n',
               '-   1    4   94     1    94    6.3155E+00  2.0546E-03   '
               '6.3134E+00  0.000E+00  0.000E+00  0.000E+00  1.13853E+02  '
               '1.903E+00  4.090E+00  8.547E-04  2.188E-03 -1.334E-04\n',
               '-   1    4   95     1    95    6.3134E+00  2.0541E-03   '
               '6.3114E+00  0.000E+00  0.000E+00  0.000E+00  1.13553E+02  '
               '1.903E+00  4.089E+00  8.546E-04  2.208E-03 -1.538E-04\n',
               '-   1    4   96     1    96    6.3114E+00  2.0536E-03   '
               '6.3093E+00  0.000E+00  0.000E+00  0.000E+00  1.13253E+02  '
               '1.903E+00  4.089E+00  8.545E-04  2.209E-03 -1.556E-04\n',
               '-   1    4   97     1    97    6.3093E+00  2.0531E-03   '
               '6.3073E+00  0.000E+00  0.000E+00  0.000E+00  1.12952E+02  '
               '1.902E+00  4.088E+00  8.544E-04  2.216E-03 -1.626E-04\n',
               '-   1    4   98     1    98    6.3073E+00  2.0525E-03   '
               '6.3052E+00  0.000E+00  0.000E+00  0.000E+00  1.12652E+02  '
               '1.902E+00  4.088E+00  8.543E-04  2.223E-03 -1.701E-04\n',
               '-   1    4   99     1    99    6.3052E+00  2.0520E-03   '
               '6.3032E+00  0.000E+00  0.000E+00  0.000E+00  1.12352E+02  '
               '1.902E+00  4.088E+00  8.542E-04  2.230E-03 -1.780E-04\n',
               '-   1    4  100     1   100    6.3032E+00  2.0515E-03   '
               '6.3011E+00  0.000E+00  0.000E+00  0.000E+00  1.12051E+02  '
               '1.901E+00  4.087E+00  8.541E-04  2.236E-03 -1.848E-04\n',
               '-\n',
               '-\n',
               '-\n',
               '-1\n',
               '-  VOLUMETRIC BUDGET FOR UNSATURATED ZONE BENEATH STREAMS AT '
               'END OF TIME STEP    30 STRESS PERIOD  44\n',
               '-  '
               '------------------------------------------------------------------------------------------------\n',
               '-\n',
               '-    CUMULATIVE VOLUMES             L**3    RATES FOR THIS '
               'TIME STEP         L**3/T\n',
               '-    ------------------                     '
               '------------------------\n',
               '-\n',
               '-\n',
               '-          STREAM LOSS =     34528092.0000            STREAM '
               'LOSS =            0.2078\n',
               '-    CHANGE IN STORAGE =       476654.3125      CHANGE IN '
               'STORAGE =       -5.2953E-03\n',
               '-       RECHARGE TO GW =     34056132.0000         RECHARGE TO '
               'GW =            0.2130\n',
               '-\n',
               '-             TOTAL IN =     34528092.0000               TOTAL '
               'IN =            0.2130\n',
               '-\n',
               '-            TOTAL OUT =     34532788.0000              TOTAL '
               'OUT =            0.2130\n',
               '-\n',
               '-             IN - OUT =        -4696.0000               IN - '
               'OUT =            0.0000\n',
               '-\n',
               '-  PERCENT DISCREPANCY =           -0.00      PERCENT '
               'DISCREPANCY =             0.00\n',
               '-\n',
               '-\n',
               '-\n',
               '-1\n',
               '-  VOLUMETRIC BUDGET FOR ENTIRE MODEL AT END OF TIME STEP   '
               '30, STRESS PERIOD  44\n',
               '-  '
               '------------------------------------------------------------------------------\n',
               '-\n',
               '-     CUMULATIVE VOLUMES      L**3       RATES FOR THIS TIME '
               'STEP      L**3/T\n',
               '-     ------------------                 '
               '------------------------\n',
               '-\n',
               '-           IN:                                      IN:\n',
               '-           ---                                      ---\n',
               '-             STORAGE =    16620768.0000               STORAGE '
               '=       1.1363E-02\n',
               '-       CONSTANT HEAD =           0.0000         CONSTANT HEAD '
               '=           0.0000\n',
               '-     HEAD DEP BOUNDS =           0.0000       HEAD DEP BOUNDS '
               '=           0.0000\n',
               '-      STREAM LEAKAGE =    34055448.0000        STREAM LEAKAGE '
               '=           0.2130\n',
               '-\n',
               '-            TOTAL IN =    50676216.0000              TOTAL IN '
               '=           0.2244\n',
               '-\n',
               '-          OUT:                                     OUT:\n',
               '-          ----                                     ----\n',
               '-             STORAGE =    17087614.0000               STORAGE '
               '=       1.7939E-02\n',
               '-       CONSTANT HEAD =           0.0000         CONSTANT HEAD '
               '=           0.0000\n',
               '-     HEAD DEP BOUNDS =    33588164.0000       HEAD DEP BOUNDS '
               '=           0.2063\n',
               '-      STREAM LEAKAGE =           0.0000        STREAM LEAKAGE '
               '=           0.0000\n',
               '-\n',
               '-           TOTAL OUT =    50675776.0000             TOTAL OUT '
               '=           0.2242\n',
               '-\n',
               '-            IN - OUT =         440.0000              IN - OUT '
               '=       1.7756E-04\n',
               '-\n',
               '- PERCENT DISCREPANCY =           0.00     PERCENT DISCREPANCY '
               '=           0.08\n',
               '-\n',
               '-\n',
               '-\n',
               '-\n',
               '-\n',
               '-\n',
               '-         TIME SUMMARY AT END OF TIME STEP   30 IN STRESS '
               'PERIOD   44\n',
               '-                    SECONDS     MINUTES      HOURS       '
               'DAYS        YEARS\n',
               '-                    '
               '-----------------------------------------------------------\n',
               '-   TIME STEP LENGTH 2.49961E+05  4166.0      69.434      '
               '2.8931     7.92080E-03\n',
               '- STRESS PERIOD TIME 2.59200E+06  43200.      720.00      '
               '30.000     8.21355E-02\n',
               '-         TOTAL TIME 1.14048E+08 1.90080E+06  31680.      '
               '1320.0      3.6140    \n',
               '-1\n',
               '-1\n',
               '-                            STRESS PERIOD NO.   45, LENGTH '
               '=   2592000.    \n',
               '-                            '
               '-----------------------------------------------\n',
               '-\n',
               '-                              NUMBER OF TIME STEPS =    30\n',
               '-\n',
               '-                               MULTIPLIER FOR DELT =     '
               '1.100\n',
               '-\n',
               '-                            INITIAL TIME STEP SIZE =   '
               '15757.40    \n',
               '-\n',
               '- REUSING NON-PARAMETER GHB CELLS FROM LAST STRESS PERIOD\n',
               '-\n',
               '-      7 GHB CELLS\n',
               '- \n',
               '- SOLVING FOR HEAD \n',
               '-\n',
               '- NO OUTPUT CONTROL FOR STRESS PERIOD   45   TIME STEP    1\n',
               '- \n',
               '- SOLVING FOR HEAD \n',
               '-\n',
               '- NO OUTPUT CONTROL FOR STRESS PERIOD   45   TIME STEP    2\n',
               '- \n',
               '- SOLVING FOR HEAD \n',
               '-\n',
               '- NO OUTPUT CONTROL FOR STRESS PERIOD   45   TIME STEP    3\n',
               '- \n',
               '- SOLVING FOR HEAD \n',
               '-\n',
               '- NO OUTPUT CONTROL FOR STRESS PERIOD   45   TIME STEP    4\n',
               '- \n',
               '- SOLVING FOR HEAD \n',
               '-\n',
               '- NO OUTPUT CONTROL FOR STRESS PERIOD   45   TIME STEP    5\n',
               '- \n',
               '- SOLVING FOR HEAD \n',
               '-\n',
               '- NO OUTPUT CONTROL FOR STRESS PERIOD   45   TIME STEP    6\n',
               '- \n',
               '- SOLVING FOR HEAD \n',
               '-\n',
               '- NO OUTPUT CONTROL FOR STRESS PERIOD   45   TIME STEP    7\n',
               '- \n',
               '- SOLVING FOR HEAD \n',
               '-\n',
               '- NO OUTPUT CONTROL FOR STRESS PERIOD   45   TIME STEP    8\n',
               '- \n',
               '- SOLVING FOR HEAD \n',
               '-\n',
               '- NO OUTPUT CONTROL FOR STRESS PERIOD   45   TIME STEP    9\n',
               '- \n',
               '- SOLVING FOR HEAD \n',
               '-\n',
               '- NO OUTPUT CONTROL FOR STRESS PERIOD   45   TIME STEP   10\n',
               '- \n',
               '- SOLVING FOR HEAD \n',
               '-\n',
               '- NO OUTPUT CONTROL FOR STRESS PERIOD   45   TIME STEP   11\n',
               '- \n',
               '- SOLVING FOR HEAD \n',
               '-\n',
               '- NO OUTPUT CONTROL FOR STRESS PERIOD   45   TIME STEP   12\n',
               '- \n',
               '- SOLVING FOR HEAD \n',
               '-\n',
               '- NO OUTPUT CONTROL FOR STRESS PERIOD   45   TIME STEP   13\n',
               '- \n',
               '- SOLVING FOR HEAD \n',
               '-\n',
               '- NO OUTPUT CONTROL FOR STRESS PERIOD   45   TIME STEP   14\n',
               '- \n',
               '- SOLVING FOR HEAD \n',
               '-\n',
               '- NO OUTPUT CONTROL FOR STRESS PERIOD   45   TIME STEP   15\n',
               '- \n',
               '- SOLVING FOR HEAD \n',
               '-\n',
               '- NO OUTPUT CONTROL FOR STRESS PERIOD   45   TIME STEP   16\n',
               '- \n',
               '- SOLVING FOR HEAD \n',
               '-\n',
               '- NO OUTPUT CONTROL FOR STRESS PERIOD   45   TIME STEP   17\n',
               '- \n',
               '- SOLVING FOR HEAD \n',
               '-\n',
               '- NO OUTPUT CONTROL FOR STRESS PERIOD   45   TIME STEP   18\n',
               '- \n',
               '- SOLVING FOR HEAD \n',
               '-\n',
               '- NO OUTPUT CONTROL FOR STRESS PERIOD   45   TIME STEP   19\n',
               '- \n',
               '- SOLVING FOR HEAD \n',
               '-\n',
               '- NO OUTPUT CONTROL FOR STRESS PERIOD   45   TIME STEP   20\n',
               '- \n',
               '- SOLVING FOR HEAD \n',
               '-\n',
               '- NO OUTPUT CONTROL FOR STRESS PERIOD   45   TIME STEP   21\n',
               '- \n',
               '- SOLVING FOR HEAD \n',
               '-\n',
               '- NO OUTPUT CONTROL FOR STRESS PERIOD   45   TIME STEP   22\n',
               '- \n',
               '- SOLVING FOR HEAD \n',
               '-\n',
               '- NO OUTPUT CONTROL FOR STRESS PERIOD   45   TIME STEP   23\n',
               '- \n',
               '- SOLVING FOR HEAD \n',
               '-\n',
               '- NO OUTPUT CONTROL FOR STRESS PERIOD   45   TIME STEP   24\n',
               '- \n',
               '- SOLVING FOR HEAD \n',
               '-\n',
               '- NO OUTPUT CONTROL FOR STRESS PERIOD   45   TIME STEP   25\n',
               '- \n',
               '- SOLVING FOR HEAD \n',
               '-\n',
               '- NO OUTPUT CONTROL FOR STRESS PERIOD   45   TIME STEP   26\n',
               '- \n',
               '- SOLVING FOR HEAD \n',
               '-\n',
               '- NO OUTPUT CONTROL FOR STRESS PERIOD   45   TIME STEP   27\n',
               '- \n',
               '- SOLVING FOR HEAD \n',
               '-\n',
               '- NO OUTPUT CONTROL FOR STRESS PERIOD   45   TIME STEP   28\n',
               '- \n',
               '- SOLVING FOR HEAD \n',
               '-\n',
               '- NO OUTPUT CONTROL FOR STRESS PERIOD   45   TIME STEP   29\n',
               '- \n',
               '- SOLVING FOR HEAD \n',
               '-\n',
               '- OUTPUT CONTROL FOR STRESS PERIOD   45   TIME STEP   30\n',
               '-    PRINT HEAD FOR ALL LAYERS\n',
               '-    PRINT BUDGET\n',
               '-    SAVE BUDGET\n',
               '-\n',
               '-  HEAD DEP BOUNDS   PERIOD   45   STEP  30\n',
               '- BOUNDARY      1   LAYER   1   ROW     1   COL   100   RATE   '
               '-2.990730E-02\n',
               '- BOUNDARY      2   LAYER   1   ROW     2   COL   100   RATE   '
               '-2.992962E-02\n',
               '- BOUNDARY      3   LAYER   1   ROW     3   COL   100   RATE   '
               '-2.971463E-02\n',
               '- BOUNDARY      4   LAYER   1   ROW     4   COL   100   RATE   '
               '-2.206818E-02\n',
               '- BOUNDARY      5   LAYER   1   ROW     5   COL   100   RATE   '
               '-2.971463E-02\n',
               '- BOUNDARY      6   LAYER   1   ROW     6   COL   100   RATE   '
               '-2.992962E-02\n',
               '- BOUNDARY      7   LAYER   1   ROW     7   COL   100   RATE   '
               '-2.990730E-02\n',
               '-\n',
               '-\n',
               '-\n',
               '- STREAM LISTING     PERIOD     45   STEP       30\n',
               '-\n',
               '- LAYER ROW COL. STREAM  RCH.   FLOW INTO    STREAM     FLOW '
               'OUT OF   OVRLND.    DIRECT     STREAM      STREAM      '
               'STREAM     STREAM  STREAMBED   FLOW TO   CHNG. UNSAT. \n',
               '-                SEG.NO.  NO.   STRM. RCH.    LOSS       STRM. '
               'RCH.   RUNOFF     PRECIP       ET         HEAD        '
               'DEPTH      WIDTH  CONDCTNC.   WAT. TAB.\n',
               '-\n',
               '-   1    4    1     1     1    3.4289E+00  1.2956E-03   '
               '3.4276E+00  0.000E+00  0.000E+00  0.000E+00  1.41237E+02  '
               '1.387E+00  3.472E+00  6.863E-04  1.387E-03 -9.109E-05\n',
               '-   1    4    2     1     2    3.4276E+00  1.2952E-03   '
               '3.4263E+00  0.000E+00  0.000E+00  0.000E+00  1.40937E+02  '
               '1.387E+00  3.472E+00  6.862E-04  1.386E-03 -9.078E-05\n',
               '-   1    4    3     1     3    3.4263E+00  1.2949E-03   '
               '3.4250E+00  0.000E+00  0.000E+00  0.000E+00  1.40637E+02  '
               '1.387E+00  3.471E+00  6.861E-04  1.385E-03 -9.047E-05\n',
               '-   1    4    4     1     4    3.4250E+00  1.2945E-03   '
               '3.4237E+00  0.000E+00  0.000E+00  0.000E+00  1.40336E+02  '
               '1.386E+00  3.471E+00  6.860E-04  1.385E-03 -9.015E-05\n',
               '-   1    4    5     1     5    3.4237E+00  1.2942E-03   '
               '3.4224E+00  0.000E+00  0.000E+00  0.000E+00  1.40036E+02  '
               '1.386E+00  3.471E+00  6.859E-04  1.384E-03 -8.983E-05\n',
               '-   1    4    6     1     6    3.4224E+00  1.2938E-03   '
               '3.4211E+00  0.000E+00  0.000E+00  0.000E+00  1.39736E+02  '
               '1.386E+00  3.470E+00  6.858E-04  1.383E-03 -8.949E-05\n',
               '-   1    4    7     1     7    3.4211E+00  1.2935E-03   '
               '3.4198E+00  0.000E+00  0.000E+00  0.000E+00  1.39436E+02  '
               '1.386E+00  3.470E+00  6.858E-04  1.383E-03 -8.916E-05\n',
               '-   1    4    8     1     8    3.4198E+00  1.2931E-03   '
               '3.4185E+00  0.000E+00  0.000E+00  0.000E+00  1.39135E+02  '
               '1.385E+00  3.470E+00  6.857E-04  1.382E-03 -8.881E-05\n',
               '-   1    4    9     1     9    3.4185E+00  1.2928E-03   '
               '3.4172E+00  0.000E+00  0.000E+00  0.000E+00  1.38835E+02  '
               '1.385E+00  3.470E+00  6.856E-04  1.381E-03 -8.845E-05\n',
               '-   1    4   10     1    10    3.4172E+00  1.2924E-03   '
               '3.4159E+00  0.000E+00  0.000E+00  0.000E+00  1.38535E+02  '
               '1.385E+00  3.469E+00  6.855E-04  1.381E-03 -8.809E-05\n',
               '-   1    4   11     1    11    3.4159E+00  1.2921E-03   '
               '3.4146E+00  0.000E+00  0.000E+00  0.000E+00  1.38234E+02  '
               '1.384E+00  3.469E+00  6.854E-04  1.380E-03 -8.772E-05\n',
               '-   1    4   12     1    12    3.4146E+00  1.2917E-03   '
               '3.4133E+00  0.000E+00  0.000E+00  0.000E+00  1.37934E+02  '
               '1.384E+00  3.469E+00  6.853E-04  1.379E-03 -8.734E-05\n',
               '-   1    4   13     1    13    3.4133E+00  1.2913E-03   '
               '3.4120E+00  0.000E+00  0.000E+00  0.000E+00  1.37634E+02  '
               '1.384E+00  3.468E+00  6.852E-04  1.378E-03 -8.695E-05\n',
               '-   1    4   14     1    14    3.4120E+00  1.2910E-03   '
               '3.4107E+00  0.000E+00  0.000E+00  0.000E+00  1.37334E+02  '
               '1.384E+00  3.468E+00  6.851E-04  1.378E-03 -8.655E-05\n',
               '-   1    4   15     1    15    3.4107E+00  1.2906E-03   '
               '3.4095E+00  0.000E+00  0.000E+00  0.000E+00  1.37033E+02  '
               '1.383E+00  3.468E+00  6.850E-04  1.377E-03 -8.614E-05\n',
               '-   1    4   16     1    16    3.4095E+00  1.2903E-03   '
               '3.4082E+00  0.000E+00  0.000E+00  0.000E+00  1.36733E+02  '
               '1.383E+00  3.467E+00  6.850E-04  1.376E-03 -8.573E-05\n',
               '-   1    4   17     1    17    3.4082E+00  1.2899E-03   '
               '3.4069E+00  0.000E+00  0.000E+00  0.000E+00  1.36433E+02  '
               '1.383E+00  3.467E+00  6.849E-04  1.375E-03 -8.530E-05\n',
               '-   1    4   18     1    18    3.4069E+00  1.2896E-03   '
               '3.4056E+00  0.000E+00  0.000E+00  0.000E+00  1.36133E+02  '
               '1.383E+00  3.467E+00  6.848E-04  1.374E-03 -8.471E-05\n',
               '-   1    4   19     1    19    3.4056E+00  1.2892E-03   '
               '3.4043E+00  0.000E+00  0.000E+00  0.000E+00  1.35832E+02  '
               '1.382E+00  3.466E+00  6.847E-04  1.373E-03 -8.412E-05\n',
               '-   1    4   20     1    20    3.4043E+00  1.2889E-03   '
               '3.4030E+00  0.000E+00  0.000E+00  0.000E+00  1.35532E+02  '
               '1.382E+00  3.466E+00  6.846E-04  1.372E-03 -8.353E-05\n',
               '-   1    4   21     1    21    3.4030E+00  1.2885E-03   '
               '3.4017E+00  0.000E+00  0.000E+00  0.000E+00  1.35232E+02  '
               '1.382E+00  3.466E+00  6.845E-04  1.371E-03 -8.295E-05\n',
               '-   1    4   22     1    22    3.4017E+00  1.2882E-03   '
               '3.4004E+00  0.000E+00  0.000E+00  0.000E+00  1.34931E+02  '
               '1.381E+00  3.465E+00  6.844E-04  1.370E-03 -8.221E-05\n',
               '-   1    4   23     1    23    3.4004E+00  1.2878E-03   '
               '3.3991E+00  0.000E+00  0.000E+00  0.000E+00  1.34631E+02  '
               '1.381E+00  3.465E+00  6.843E-04  1.369E-03 -8.144E-05\n',
               '-   1    4   24     1    24    3.3991E+00  1.2875E-03   '
               '3.3979E+00  0.000E+00  0.000E+00  0.000E+00  1.34331E+02  '
               '1.381E+00  3.465E+00  6.842E-04  1.368E-03 -8.068E-05\n',
               '-   1    4   25     1    25    3.3979E+00  1.2871E-03   '
               '3.3966E+00  0.000E+00  0.000E+00  0.000E+00  1.34031E+02  '
               '1.381E+00  3.464E+00  6.842E-04  1.367E-03 -7.993E-05\n',
               '-   1    4   26     1    26    3.3966E+00  1.2868E-03   '
               '3.3953E+00  0.000E+00  0.000E+00  0.000E+00  1.33730E+02  '
               '1.380E+00  3.464E+00  6.841E-04  1.366E-03 -7.920E-05\n',
               '-   1    4   27     1    27    3.3953E+00  1.2864E-03   '
               '3.3940E+00  0.000E+00  0.000E+00  0.000E+00  1.33430E+02  '
               '1.380E+00  3.464E+00  6.840E-04  1.365E-03 -7.849E-05\n',
               '-   1    4   28     1    28    3.3940E+00  1.2861E-03   '
               '3.3927E+00  0.000E+00  0.000E+00  0.000E+00  1.33130E+02  '
               '1.380E+00  3.463E+00  6.839E-04  1.364E-03 -7.779E-05\n',
               '-   1    4   29     1    29    3.3927E+00  1.2857E-03   '
               '3.3914E+00  0.000E+00  0.000E+00  0.000E+00  1.32830E+02  '
               '1.380E+00  3.463E+00  6.838E-04  1.363E-03 -7.710E-05\n',
               '-   1    4   30     1    30    3.3914E+00  1.2853E-03   '
               '3.3901E+00  0.000E+00  0.000E+00  0.000E+00  1.32529E+02  '
               '1.379E+00  3.463E+00  6.837E-04  1.362E-03 -7.633E-05\n',
               '-   1    4   31     1    31    3.3901E+00  1.2850E-03   '
               '3.3889E+00  0.000E+00  0.000E+00  0.000E+00  1.32229E+02  '
               '1.379E+00  3.462E+00  6.836E-04  1.361E-03 -7.554E-05\n',
               '-   1    4   32     1    32    3.3889E+00  1.2846E-03   '
               '3.3876E+00  0.000E+00  0.000E+00  0.000E+00  1.31929E+02  '
               '1.379E+00  3.462E+00  6.835E-04  1.359E-03 -7.479E-05\n',
               '-   1    4   33     1    33    3.3876E+00  1.2843E-03   '
               '3.3863E+00  0.000E+00  0.000E+00  0.000E+00  1.31628E+02  '
               '1.378E+00  3.462E+00  6.834E-04  1.358E-03 -7.407E-05\n',
               '-   1    4   34     1    34    3.3863E+00  1.2839E-03   '
               '3.3850E+00  0.000E+00  0.000E+00  0.000E+00  1.31328E+02  '
               '1.378E+00  3.461E+00  6.834E-04  1.357E-03 -7.340E-05\n',
               '-   1    4   35     1    35    3.3850E+00  1.2836E-03   '
               '3.3837E+00  0.000E+00  0.000E+00  0.000E+00  1.31028E+02  '
               '1.378E+00  3.461E+00  6.833E-04  1.356E-03 -7.275E-05\n',
               '-   1    4   36     1    36    3.3837E+00  1.2832E-03   '
               '3.3824E+00  0.000E+00  0.000E+00  0.000E+00  1.30728E+02  '
               '1.378E+00  3.461E+00  6.832E-04  1.355E-03 -7.215E-05\n',
               '-   1    4   37     1    37    3.3824E+00  1.2829E-03   '
               '3.3812E+00  0.000E+00  0.000E+00  0.000E+00  1.30427E+02  '
               '1.377E+00  3.460E+00  6.831E-04  1.354E-03 -7.159E-05\n',
               '-   1    4   38     1    38    3.3812E+00  1.2825E-03   '
               '3.3799E+00  0.000E+00  0.000E+00  0.000E+00  1.30127E+02  '
               '1.377E+00  3.460E+00  6.830E-04  1.354E-03 -7.106E-05\n',
               '-   1    4   39     1    39    3.3799E+00  1.2822E-03   '
               '3.3786E+00  0.000E+00  0.000E+00  0.000E+00  1.29827E+02  '
               '1.377E+00  3.460E+00  6.829E-04  1.353E-03 -7.058E-05\n',
               '-   1    4   40     1    40    3.3786E+00  1.2818E-03   '
               '3.3773E+00  0.000E+00  0.000E+00  0.000E+00  1.29527E+02  '
               '1.377E+00  3.459E+00  6.828E-04  1.352E-03 -7.014E-05\n',
               '-   1    4   41     1    41    3.3773E+00  1.2815E-03   '
               '3.3760E+00  0.000E+00  0.000E+00  0.000E+00  1.29226E+02  '
               '1.376E+00  3.459E+00  6.827E-04  1.351E-03 -6.974E-05\n',
               '-   1    4   42     1    42    3.3760E+00  1.2811E-03   '
               '3.3747E+00  0.000E+00  0.000E+00  0.000E+00  1.28926E+02  '
               '1.376E+00  3.459E+00  6.827E-04  1.351E-03 -6.938E-05\n',
               '-   1    4   43     1    43    3.3747E+00  1.2808E-03   '
               '3.3735E+00  0.000E+00  0.000E+00  0.000E+00  1.28626E+02  '
               '1.376E+00  3.458E+00  6.826E-04  1.350E-03 -6.907E-05\n',
               '-   1    4   44     1    44    3.3735E+00  1.2804E-03   '
               '3.3722E+00  0.000E+00  0.000E+00  0.000E+00  1.28325E+02  '
               '1.375E+00  3.458E+00  6.825E-04  1.349E-03 -6.881E-05\n',
               '-   1    4   45     1    45    3.3722E+00  1.2801E-03   '
               '3.3709E+00  0.000E+00  0.000E+00  0.000E+00  1.28025E+02  '
               '1.375E+00  3.458E+00  6.824E-04  1.349E-03 -6.859E-05\n',
               '-   1    4   46     1    46    3.3709E+00  1.2797E-03   '
               '3.3696E+00  0.000E+00  0.000E+00  0.000E+00  1.27725E+02  '
               '1.375E+00  3.458E+00  6.823E-04  1.348E-03 -6.842E-05\n',
               '-   1    4   47     1    47    3.3696E+00  1.2794E-03   '
               '3.3683E+00  0.000E+00  0.000E+00  0.000E+00  1.27425E+02  '
               '1.375E+00  3.457E+00  6.822E-04  1.348E-03 -6.830E-05\n',
               '-   1    4   48     1    48    3.3683E+00  1.2790E-03   '
               '3.3671E+00  0.000E+00  0.000E+00  0.000E+00  1.27124E+02  '
               '1.374E+00  3.457E+00  6.821E-04  1.347E-03 -6.821E-05\n',
               '-   1    4   49     1    49    3.3671E+00  1.2787E-03   '
               '3.3658E+00  0.000E+00  0.000E+00  0.000E+00  1.26824E+02  '
               '1.374E+00  3.457E+00  6.820E-04  1.347E-03 -6.800E-05\n',
               '-   1    4   50     1    50    3.3658E+00  1.2783E-03   '
               '3.3645E+00  0.000E+00  0.000E+00  0.000E+00  1.26524E+02  '
               '1.374E+00  3.456E+00  6.819E-04  1.346E-03 -6.783E-05\n',
               '-   1    4   51     1    51    3.3645E+00  1.2780E-03   '
               '3.3632E+00  0.000E+00  0.000E+00  0.000E+00  1.26224E+02  '
               '1.374E+00  3.456E+00  6.819E-04  1.346E-03 -6.768E-05\n',
               '-   1    4   52     1    52    3.3632E+00  1.2776E-03   '
               '3.3620E+00  0.000E+00  0.000E+00  0.000E+00  1.25923E+02  '
               '1.373E+00  3.456E+00  6.818E-04  1.345E-03 -6.757E-05\n',
               '-   1    4   53     1    53    3.3620E+00  1.2773E-03   '
               '3.3607E+00  0.000E+00  0.000E+00  0.000E+00  1.25623E+02  '
               '1.373E+00  3.455E+00  6.817E-04  1.345E-03 -6.749E-05\n',
               '-   1    4   54     1    54    3.3607E+00  1.2769E-03   '
               '3.3594E+00  0.000E+00  0.000E+00  0.000E+00  1.25323E+02  '
               '1.373E+00  3.455E+00  6.816E-04  1.344E-03 -6.744E-05\n',
               '-   1    4   55     1    55    3.3594E+00  1.2766E-03   '
               '3.3581E+00  0.000E+00  0.000E+00  0.000E+00  1.25022E+02  '
               '1.372E+00  3.455E+00  6.815E-04  1.344E-03 -6.728E-05\n',
               '-   1    4   56     1    56    3.3581E+00  1.2762E-03   '
               '3.3568E+00  0.000E+00  0.000E+00  0.000E+00  1.24722E+02  '
               '1.372E+00  3.454E+00  6.814E-04  1.343E-03 -6.705E-05\n',
               '-   1    4   57     1    57    3.3568E+00  1.2759E-03   '
               '3.3556E+00  0.000E+00  0.000E+00  0.000E+00  1.24422E+02  '
               '1.372E+00  3.454E+00  6.813E-04  1.343E-03 -6.684E-05\n',
               '-   1    4   58     1    58    3.3556E+00  1.2755E-03   '
               '3.3543E+00  0.000E+00  0.000E+00  0.000E+00  1.24122E+02  '
               '1.372E+00  3.454E+00  6.812E-04  1.342E-03 -6.656E-05\n',
               '-   1    4   59     1    59    3.3543E+00  1.2752E-03   '
               '3.3530E+00  0.000E+00  0.000E+00  0.000E+00  1.23821E+02  '
               '1.371E+00  3.453E+00  6.811E-04  1.341E-03 -6.619E-05\n',
               '-   1    4   60     1    60    3.3530E+00  1.2748E-03   '
               '3.3517E+00  0.000E+00  0.000E+00  0.000E+00  1.23521E+02  '
               '1.371E+00  3.453E+00  6.811E-04  1.341E-03 -6.582E-05\n',
               '-   1    4   61     1    61    3.3517E+00  1.2745E-03   '
               '3.3505E+00  0.000E+00  0.000E+00  0.000E+00  1.23221E+02  '
               '1.371E+00  3.453E+00  6.810E-04  1.340E-03 -6.547E-05\n',
               '-   1    4   62     1    62    3.3505E+00  1.2741E-03   '
               '3.3492E+00  0.000E+00  0.000E+00  0.000E+00  1.22921E+02  '
               '1.371E+00  3.452E+00  6.809E-04  1.339E-03 -6.512E-05\n',
               '-   1    4   63     1    63    3.3492E+00  1.2738E-03   '
               '3.3479E+00  0.000E+00  0.000E+00  0.000E+00  1.22620E+02  '
               '1.370E+00  3.452E+00  6.808E-04  1.339E-03 -6.478E-05\n',
               '-   1    4   64     1    64    3.3479E+00  1.2734E-03   '
               '3.3466E+00  0.000E+00  0.000E+00  0.000E+00  1.22320E+02  '
               '1.370E+00  3.452E+00  6.807E-04  1.338E-03 -6.444E-05\n',
               '-   1    4   65     1    65    3.3466E+00  1.2731E-03   '
               '3.3454E+00  0.000E+00  0.000E+00  0.000E+00  1.22020E+02  '
               '1.370E+00  3.451E+00  6.806E-04  1.337E-03 -6.412E-05\n',
               '-   1    4   66     1    66    3.3454E+00  1.2727E-03   '
               '3.3441E+00  0.000E+00  0.000E+00  0.000E+00  1.21720E+02  '
               '1.370E+00  3.451E+00  6.805E-04  1.337E-03 -6.380E-05\n',
               '-   1    4   67     1    67    3.3441E+00  1.2724E-03   '
               '3.3428E+00  0.000E+00  0.000E+00  0.000E+00  1.21419E+02  '
               '1.369E+00  3.451E+00  6.804E-04  1.336E-03 -6.348E-05\n',
               '-   1    4   68     1    68    3.3428E+00  1.2720E-03   '
               '3.3416E+00  0.000E+00  0.000E+00  0.000E+00  1.21119E+02  '
               '1.369E+00  3.450E+00  6.804E-04  1.335E-03 -6.317E-05\n',
               '-   1    4   69     1    69    3.3416E+00  1.2717E-03   '
               '3.3403E+00  0.000E+00  0.000E+00  0.000E+00  1.20819E+02  '
               '1.369E+00  3.450E+00  6.803E-04  1.335E-03 -6.286E-05\n',
               '-   1    4   70     1    70    3.3403E+00  1.2713E-03   '
               '3.3390E+00  0.000E+00  0.000E+00  0.000E+00  1.20518E+02  '
               '1.368E+00  3.450E+00  6.802E-04  1.334E-03 -6.256E-05\n',
               '-   1    4   71     1    71    3.3390E+00  1.2710E-03   '
               '3.3377E+00  0.000E+00  0.000E+00  0.000E+00  1.20218E+02  '
               '1.368E+00  3.449E+00  6.801E-04  1.333E-03 -6.226E-05\n',
               '-   1    4   72     1    72    3.3377E+00  1.2706E-03   '
               '3.3365E+00  0.000E+00  0.000E+00  0.000E+00  1.19918E+02  '
               '1.368E+00  3.449E+00  6.800E-04  1.333E-03 -6.196E-05\n',
               '-   1    4   73     1    73    3.3365E+00  1.2703E-03   '
               '3.3352E+00  0.000E+00  0.000E+00  0.000E+00  1.19618E+02  '
               '1.368E+00  3.449E+00  6.799E-04  1.332E-03 -6.165E-05\n',
               '-   1    4   74     1    74    3.3352E+00  1.2699E-03   '
               '3.3339E+00  0.000E+00  0.000E+00  0.000E+00  1.19317E+02  '
               '1.367E+00  3.448E+00  6.798E-04  1.331E-03 -6.135E-05\n',
               '-   1    4   75     1    75    3.3339E+00  1.2696E-03   '
               '3.3327E+00  0.000E+00  0.000E+00  0.000E+00  1.19017E+02  '
               '1.367E+00  3.448E+00  6.797E-04  1.331E-03 -6.105E-05\n',
               '-   1    4   76     1    76    3.3327E+00  1.2692E-03   '
               '3.3314E+00  0.000E+00  0.000E+00  0.000E+00  1.18717E+02  '
               '1.367E+00  3.448E+00  6.796E-04  1.330E-03 -6.074E-05\n',
               '-   1    4   77     1    77    3.3314E+00  1.2689E-03   '
               '3.3301E+00  0.000E+00  0.000E+00  0.000E+00  1.18417E+02  '
               '1.367E+00  3.447E+00  6.796E-04  1.329E-03 -6.043E-05\n',
               '-   1    4   78     1    78    3.3301E+00  1.2685E-03   '
               '3.3289E+00  0.000E+00  0.000E+00  0.000E+00  1.18116E+02  '
               '1.366E+00  3.447E+00  6.795E-04  1.329E-03 -6.011E-05\n',
               '-   1    4   79     1    79    3.3289E+00  1.2682E-03   '
               '3.3276E+00  0.000E+00  0.000E+00  0.000E+00  1.17816E+02  '
               '1.366E+00  3.447E+00  6.794E-04  1.328E-03 -5.979E-05\n',
               '-   1    4   80     1    80    3.3276E+00  1.2678E-03   '
               '3.3263E+00  0.000E+00  0.000E+00  0.000E+00  1.17516E+02  '
               '1.366E+00  3.446E+00  6.793E-04  1.327E-03 -5.946E-05\n',
               '-   1    4   81     1    81    3.3263E+00  1.2675E-03   '
               '3.3251E+00  0.000E+00  0.000E+00  0.000E+00  1.17215E+02  '
               '1.365E+00  3.446E+00  6.792E-04  1.327E-03 -5.913E-05\n',
               '-   1    4   82     1    82    3.3251E+00  1.2671E-03   '
               '3.3238E+00  0.000E+00  0.000E+00  0.000E+00  1.16915E+02  '
               '1.365E+00  3.446E+00  6.791E-04  1.326E-03 -5.879E-05\n',
               '-   1    4   83     1    83    3.3238E+00  1.2668E-03   '
               '3.3225E+00  0.000E+00  0.000E+00  0.000E+00  1.16615E+02  '
               '1.365E+00  3.446E+00  6.790E-04  1.325E-03 -5.846E-05\n',
               '-   1    4   84     1    84    3.3225E+00  1.2665E-03   '
               '3.3213E+00  0.000E+00  0.000E+00  0.000E+00  1.16315E+02  '
               '1.365E+00  3.445E+00  6.789E-04  1.325E-03 -5.812E-05\n',
               '-   1    4   85     1    85    3.3213E+00  1.2661E-03   '
               '3.3200E+00  0.000E+00  0.000E+00  0.000E+00  1.16014E+02  '
               '1.364E+00  3.445E+00  6.789E-04  1.324E-03 -5.779E-05\n',
               '-   1    4   86     1    86    3.3200E+00  1.2658E-03   '
               '3.3187E+00  0.000E+00  0.000E+00  0.000E+00  1.15714E+02  '
               '1.364E+00  3.445E+00  6.788E-04  1.323E-03 -5.747E-05\n',
               '-   1    4   87     1    87    3.3187E+00  1.2654E-03   '
               '3.3175E+00  0.000E+00  0.000E+00  0.000E+00  1.15414E+02  '
               '1.364E+00  3.444E+00  6.787E-04  1.323E-03 -5.714E-05\n',
               '-   1    4   88     1    88    3.3175E+00  1.2651E-03   '
               '3.3162E+00  0.000E+00  0.000E+00  0.000E+00  1.15114E+02  '
               '1.364E+00  3.444E+00  6.786E-04  1.333E-03 -6.769E-05\n',
               '-   1    4   89     1    89    3.3162E+00  1.2647E-03   '
               '3.3149E+00  0.000E+00  0.000E+00  0.000E+00  1.14813E+02  '
               '1.363E+00  3.444E+00  6.785E-04  1.341E-03 -7.642E-05\n',
               '-   1    4   90     1    90    3.3149E+00  1.2644E-03   '
               '3.3137E+00  0.000E+00  0.000E+00  0.000E+00  1.14513E+02  '
               '1.363E+00  3.443E+00  6.784E-04  1.341E-03 -7.628E-05\n',
               '-   1    4   91     1    91    3.3137E+00  1.2640E-03   '
               '3.3124E+00  0.000E+00  0.000E+00  0.000E+00  1.14213E+02  '
               '1.363E+00  3.443E+00  6.783E-04  1.340E-03 -7.620E-05\n',
               '-   1    4   92     1    92    3.3124E+00  1.2637E-03   '
               '3.3111E+00  0.000E+00  0.000E+00  0.000E+00  1.13912E+02  '
               '1.362E+00  3.443E+00  6.782E-04  1.340E-03 -7.623E-05\n',
               '-   1    4   93     1    93    3.3111E+00  1.2633E-03   '
               '3.3099E+00  0.000E+00  0.000E+00  0.000E+00  1.13612E+02  '
               '1.362E+00  3.442E+00  6.781E-04  1.343E-03 -7.966E-05\n',
               '-   1    4   94     1    94    3.3099E+00  1.2630E-03   '
               '3.3086E+00  0.000E+00  0.000E+00  0.000E+00  1.13312E+02  '
               '1.362E+00  3.442E+00  6.781E-04  1.343E-03 -7.998E-05\n',
               '-   1    4   95     1    95    3.3086E+00  1.2626E-03   '
               '3.3073E+00  0.000E+00  0.000E+00  0.000E+00  1.13012E+02  '
               '1.362E+00  3.442E+00  6.780E-04  1.343E-03 -8.046E-05\n',
               '-   1    4   96     1    96    3.3073E+00  1.2623E-03   '
               '3.3061E+00  0.000E+00  0.000E+00  0.000E+00  1.12711E+02  '
               '1.361E+00  3.441E+00  6.779E-04  1.343E-03 -8.115E-05\n',
               '-   1    4   97     1    97    3.3061E+00  1.2619E-03   '
               '3.3048E+00  0.000E+00  0.000E+00  0.000E+00  1.12411E+02  '
               '1.361E+00  3.441E+00  6.778E-04  1.350E-03 -8.829E-05\n',
               '-   1    4   98     1    98    3.3048E+00  1.2616E-03   '
               '3.3036E+00  0.000E+00  0.000E+00  0.000E+00  1.12111E+02  '
               '1.361E+00  3.441E+00  6.777E-04  1.360E-03 -9.874E-05\n',
               '-   1    4   99     1    99    3.3036E+00  1.2612E-03   '
               '3.3023E+00  0.000E+00  0.000E+00  0.000E+00  1.11811E+02  '
               '1.361E+00  3.440E+00  6.776E-04  1.362E-03 -1.012E-04\n',
               '-   1    4  100     1   100    3.3023E+00  1.2609E-03   '
               '3.3010E+00  0.000E+00  0.000E+00  0.000E+00  1.11510E+02  '
               '1.360E+00  3.440E+00  6.775E-04  1.364E-03 -1.026E-04\n',
               '-\n',
               '-\n',
               '-\n',
               '-1\n',
               '-  VOLUMETRIC BUDGET FOR UNSATURATED ZONE BENEATH STREAMS AT '
               'END OF TIME STEP    30 STRESS PERIOD  45\n',
               '-  '
               '------------------------------------------------------------------------------------------------\n',
               '-\n',
               '-    CUMULATIVE VOLUMES             L**3    RATES FOR THIS '
               'TIME STEP         L**3/T\n',
               '-    ------------------                     '
               '------------------------\n',
               '-\n',
               '-\n',
               '-          STREAM LOSS =     34859444.0000            STREAM '
               'LOSS =            0.1278\n',
               '-    CHANGE IN STORAGE =       415108.6562      CHANGE IN '
               'STORAGE =       -7.3732E-03\n',
               '-       RECHARGE TO GW =     34448776.0000         RECHARGE TO '
               'GW =            0.1352\n',
               '-\n',
               '-             TOTAL IN =     34859444.0000               TOTAL '
               'IN =            0.1352\n',
               '-\n',
               '-            TOTAL OUT =     34863884.0000              TOTAL '
               'OUT =            0.1352\n',
               '-\n',
               '-             IN - OUT =        -4440.0000               IN - '
               'OUT =       -2.0564E-06\n',
               '-\n',
               '-  PERCENT DISCREPANCY =           -0.00      PERCENT '
               'DISCREPANCY =            -0.00\n',
               '-\n',
               '-\n',
               '-\n',
               '-1\n',
               '-              HEAD IN LAYER   1 AT END OF TIME STEP  30 IN '
               'STRESS PERIOD   45\n',
               '-  '
               '---------------------------------------------------------------------------\n',
               '-\n',
               '-          1      2      3      4      5      6      7      '
               '8      9     10\n',
               '-         11     12     13     14     15     16     17     '
               '18     19     20\n',
               '-         21     22     23     24     25     26     27     '
               '28     29     30\n',
               '-         31     32     33     34     35     36     37     '
               '38     39     40\n',
               '-         41     42     43     44     45     46     47     '
               '48     49     50\n',
               '-         51     52     53     54     55     56     57     '
               '58     59     60\n',
               '-         61     62     63     64     65     66     67     '
               '68     69     70\n',
               '-         71     72     73     74     75     76     77     '
               '78     79     80\n',
               '-         81     82     83     84     85     86     87     '
               '88     89     90\n',
               '-         91     92     93     94     95     96     97     '
               '98     99    100\n',
               '- '
               '.........................................................................\n',
               '-   1   115.6  115.6  115.6  115.6  115.6  115.6  115.5  '
               '115.5  115.5  115.4\n',
               '-       115.3  115.3  115.2  115.1  115.1  115.0  114.9  '
               '114.8  114.7  114.6\n',
               '-       114.5  114.4  114.2  114.1  114.0  113.8  113.7  '
               '113.5  113.3  113.2\n',
               '-       113.0  112.8  112.6  112.4  112.2  112.0  111.8  '
               '111.5  111.3  111.0\n',
               '-       110.8  110.5  110.2  110.0  109.7  109.4  109.1  '
               '108.8  108.4  108.1\n',
               '-       107.8  107.4  107.0  106.7  106.3  105.9  105.5  '
               '105.1  104.6  104.2\n',
               '-       103.8  103.3  102.8  102.3  101.8  101.3  100.8  '
               '100.3   99.7   99.2\n',
               '-        98.6   98.0   97.4   96.8   96.2   95.6   94.9   '
               '94.3   93.6   92.9\n',
               '-        92.2   91.4   90.7   89.9   89.2   88.4   87.5   '
               '86.7   85.9   85.0\n',
               '-        84.1   83.2   82.2   81.3   80.3   79.3   78.2   '
               '77.2   76.1   75.0\n',
               '-   2   115.6  115.6  115.6  115.6  115.6  115.6  115.5  '
               '115.5  115.5  115.4\n',
               '-       115.3  115.3  115.2  115.1  115.1  115.0  114.9  '
               '114.8  114.7  114.6\n',
               '-       114.5  114.4  114.2  114.1  114.0  113.8  113.7  '
               '113.5  113.3  113.2\n',
               '-       113.0  112.8  112.6  112.4  112.2  112.0  111.8  '
               '111.5  111.3  111.0\n',
               '-       110.8  110.5  110.2  110.0  109.7  109.4  109.1  '
               '108.8  108.4  108.1\n',
               '-       107.8  107.4  107.0  106.7  106.3  105.9  105.5  '
               '105.1  104.6  104.2\n',
               '-       103.8  103.3  102.8  102.3  101.8  101.3  100.8  '
               '100.3   99.8   99.2\n',
               '-        98.6   98.0   97.5   96.8   96.2   95.6   94.9   '
               '94.3   93.6   92.9\n',
               '-        92.2   91.4   90.7   89.9   89.2   88.4   87.5   '
               '86.7   85.9   85.0\n',
               '-        84.1   83.2   82.2   81.3   80.3   79.3   78.2   '
               '77.2   76.1   75.0\n',
               '-   3   115.7  115.6  115.6  115.6  115.6  115.6  115.5  '
               '115.5  115.5  115.4\n',
               '-       115.3  115.3  115.2  115.1  115.1  115.0  114.9  '
               '114.8  114.7  114.6\n',
               '-       114.5  114.4  114.2  114.1  114.0  113.8  113.7  '
               '113.5  113.3  113.2\n',
               '-       113.0  112.8  112.6  112.4  112.2  112.0  111.8  '
               '111.5  111.3  111.0\n',
               '-       110.8  110.5  110.2  110.0  109.7  109.4  109.1  '
               '108.8  108.4  108.1\n',
               '-       107.8  107.4  107.0  106.7  106.3  105.9  105.5  '
               '105.1  104.6  104.2\n',
               '-       103.8  103.3  102.8  102.3  101.8  101.3  100.8  '
               '100.3   99.8   99.2\n',
               '-        98.6   98.0   97.5   96.8   96.2   95.6   94.9   '
               '94.3   93.6   92.9\n',
               '-        92.2   91.4   90.7   89.9   89.2   88.4   87.5   '
               '86.7   85.9   85.0\n',
               '-        84.1   83.2   82.2   81.3   80.3   79.3   78.2   '
               '77.2   76.1   75.0\n',
               '-   4   115.7  115.6  115.6  115.6  115.6  115.6  115.5  '
               '115.5  115.5  115.4\n',
               '-       115.4  115.3  115.2  115.2  115.1  115.0  114.9  '
               '114.8  114.7  114.6\n',
               '-       114.5  114.4  114.2  114.1  114.0  113.8  113.7  '
               '113.5  113.3  113.2\n',
               '-       113.0  112.8  112.6  112.4  112.2  112.0  111.8  '
               '111.5  111.3  111.0\n',
               '-       110.8  110.5  110.3  110.0  109.7  109.4  109.1  '
               '108.8  108.4  108.1\n',
               '-       107.8  107.4  107.0  106.7  106.3  105.9  105.5  '
               '105.1  104.6  104.2\n',
               '-       103.8  103.3  102.8  102.3  101.9  101.3  100.8  '
               '100.3   99.8   99.2\n',
               '-        98.6   98.1   97.5   96.8   96.2   95.6   94.9   '
               '94.3   93.6   92.9\n',
               '-        92.2   91.5   90.7   89.9   89.2   88.4   87.5   '
               '86.7   85.9   85.0\n',
               '-        84.1   83.2   82.2   81.3   80.3   79.3   78.2   '
               '77.2   76.1   75.0\n',
               '-   5   115.7  115.6  115.6  115.6  115.6  115.6  115.5  '
               '115.5  115.5  115.4\n',
               '-       115.3  115.3  115.2  115.1  115.1  115.0  114.9  '
               '114.8  114.7  114.6\n',
               '-       114.5  114.4  114.2  114.1  114.0  113.8  113.7  '
               '113.5  113.3  113.2\n',
               '-       113.0  112.8  112.6  112.4  112.2  112.0  111.8  '
               '111.5  111.3  111.0\n',
               '-       110.8  110.5  110.2  110.0  109.7  109.4  109.1  '
               '108.8  108.4  108.1\n',
               '-       107.8  107.4  107.0  106.7  106.3  105.9  105.5  '
               '105.1  104.6  104.2\n',
               '-       103.8  103.3  102.8  102.3  101.8  101.3  100.8  '
               '100.3   99.8   99.2\n',
               '-        98.6   98.0   97.5   96.8   96.2   95.6   94.9   '
               '94.3   93.6   92.9\n',
               '-        92.2   91.4   90.7   89.9   89.2   88.4   87.5   '
               '86.7   85.9   85.0\n',
               '-        84.1   83.2   82.2   81.3   80.3   79.3   78.2   '
               '77.2   76.1   75.0\n',
               '-   6   115.6  115.6  115.6  115.6  115.6  115.6  115.5  '
               '115.5  115.5  115.4\n',
               '-       115.3  115.3  115.2  115.1  115.1  115.0  114.9  '
               '114.8  114.7  114.6\n',
               '-       114.5  114.4  114.2  114.1  114.0  113.8  113.7  '
               '113.5  113.3  113.2\n',
               '-       113.0  112.8  112.6  112.4  112.2  112.0  111.8  '
               '111.5  111.3  111.0\n',
               '-       110.8  110.5  110.2  110.0  109.7  109.4  109.1  '
               '108.8  108.4  108.1\n',
               '-       107.8  107.4  107.0  106.7  106.3  105.9  105.5  '
               '105.1  104.6  104.2\n',
               '-       103.8  103.3  102.8  102.3  101.8  101.3  100.8  '
               '100.3   99.8   99.2\n',
               '-        98.6   98.0   97.5   96.8   96.2   95.6   94.9   '
               '94.3   93.6   92.9\n',
               '-        92.2   91.4   90.7   89.9   89.2   88.4   87.5   '
               '86.7   85.9   85.0\n',
               '-        84.1   83.2   82.2   81.3   80.3   79.3   78.2   '
               '77.2   76.1   75.0\n',
               '-   7   115.6  115.6  115.6  115.6  115.6  115.6  115.5  '
               '115.5  115.5  115.4\n',
               '-       115.3  115.3  115.2  115.1  115.1  115.0  114.9  '
               '114.8  114.7  114.6\n',
               '-       114.5  114.4  114.2  114.1  114.0  113.8  113.7  '
               '113.5  113.3  113.2\n',
               '-       113.0  112.8  112.6  112.4  112.2  112.0  111.8  '
               '111.5  111.3  111.0\n',
               '-       110.8  110.5  110.2  110.0  109.7  109.4  109.1  '
               '108.8  108.4  108.1\n',
               '-       107.8  107.4  107.0  106.7  106.3  105.9  105.5  '
               '105.1  104.6  104.2\n',
               '-       103.8  103.3  102.8  102.3  101.8  101.3  100.8  '
               '100.3   99.7   99.2\n',
               '-        98.6   98.0   97.4   96.8   96.2   95.6   94.9   '
               '94.3   93.6   92.9\n',
               '-        92.2   91.4   90.7   89.9   89.2   88.4   87.5   '
               '86.7   85.9   85.0\n',
               '-        84.1   83.2   82.2   81.3   80.3   79.3   78.2   '
               '77.2   76.1   75.0\n',
               '-1\n',
               '-  VOLUMETRIC BUDGET FOR ENTIRE MODEL AT END OF TIME STEP   '
               '30, STRESS PERIOD  45\n',
               '-  '
               '------------------------------------------------------------------------------\n',
               '-\n',
               '-     CUMULATIVE VOLUMES      L**3       RATES FOR THIS TIME '
               'STEP      L**3/T\n',
               '-     ------------------                 '
               '------------------------\n',
               '-\n',
               '-           IN:                                      IN:\n',
               '-           ---                                      ---\n',
               '-             STORAGE =    16765000.0000               STORAGE '
               '=       6.6122E-02\n',
               '-       CONSTANT HEAD =           0.0000         CONSTANT HEAD '
               '=           0.0000\n',
               '-     HEAD DEP BOUNDS =           0.0000       HEAD DEP BOUNDS '
               '=           0.0000\n',
               '-      STREAM LEAKAGE =    34448308.0000        STREAM LEAKAGE '
               '=           0.1352\n',
               '-\n',
               '-            TOTAL IN =    51213308.0000              TOTAL IN '
               '=           0.2013\n',
               '-\n',
               '-          OUT:                                     OUT:\n',
               '-          ----                                     ----\n',
               '-             STORAGE =    17096418.0000               STORAGE '
               '=           0.0000\n',
               '-       CONSTANT HEAD =           0.0000         CONSTANT HEAD '
               '=           0.0000\n',
               '-     HEAD DEP BOUNDS =    34116376.0000       HEAD DEP BOUNDS '
               '=           0.2012\n',
               '-      STREAM LEAKAGE =           0.0000        STREAM LEAKAGE '
               '=           0.0000\n',
               '-\n',
               '-           TOTAL OUT =    51212792.0000             TOTAL OUT '
               '=           0.2012\n',
               '-\n',
               '-            IN - OUT =         516.0000              IN - OUT '
               '=       1.4454E-04\n',
               '-\n',
               '- PERCENT DISCREPANCY =           0.00     PERCENT DISCREPANCY '
               '=           0.07\n',
               '-\n',
               '-\n',
               '-\n',
               '-\n',
               '-\n',
               '-\n',
               '-         TIME SUMMARY AT END OF TIME STEP   30 IN STRESS '
               'PERIOD   45\n',
               '-                    SECONDS     MINUTES      HOURS       '
               'DAYS        YEARS\n',
               '-                    '
               '-----------------------------------------------------------\n',
               '-   TIME STEP LENGTH 2.49961E+05  4166.0      69.434      '
               '2.8931     7.92080E-03\n',
               '- STRESS PERIOD TIME 2.59200E+06  43200.      720.00      '
               '30.000     8.21355E-02\n',
               '-         TOTAL TIME 1.16640E+08 1.94400E+06  32400.      '
               '1350.0      3.6961    \n',
               '-1\n',
               '-1\n',
               '-                            STRESS PERIOD NO.   46, LENGTH '
               '=   2592000.    \n',
               '-                            '
               '-----------------------------------------------\n',
               '-\n',
               '-                              NUMBER OF TIME STEPS =    30\n',
               '-\n',
               '-                               MULTIPLIER FOR DELT =     '
               '1.100\n',
               '-\n',
               '-                            INITIAL TIME STEP SIZE =   '
               '15757.40    \n',
               '-\n',
               '- REUSING NON-PARAMETER GHB CELLS FROM LAST STRESS PERIOD\n',
               '-\n',
               '-      7 GHB CELLS\n',
               '- \n',
               '- SOLVING FOR HEAD \n',
               '-\n',
               '- NO OUTPUT CONTROL FOR STRESS PERIOD   46   TIME STEP    1\n',
               '- \n',
               '- SOLVING FOR HEAD \n',
               '-\n',
               '- NO OUTPUT CONTROL FOR STRESS PERIOD   46   TIME STEP    2\n',
               '- \n',
               '- SOLVING FOR HEAD \n',
               '-\n',
               '- NO OUTPUT CONTROL FOR STRESS PERIOD   46   TIME STEP    3\n',
               '- \n',
               '- SOLVING FOR HEAD \n',
               '-\n',
               '- NO OUTPUT CONTROL FOR STRESS PERIOD   46   TIME STEP    4\n',
               '- \n',
               '- SOLVING FOR HEAD \n',
               '-\n',
               '- NO OUTPUT CONTROL FOR STRESS PERIOD   46   TIME STEP    5\n',
               '- \n',
               '- SOLVING FOR HEAD \n',
               '-\n',
               '- NO OUTPUT CONTROL FOR STRESS PERIOD   46   TIME STEP    6\n',
               '- \n',
               '- SOLVING FOR HEAD \n',
               '-\n',
               '- NO OUTPUT CONTROL FOR STRESS PERIOD   46   TIME STEP    7\n',
               '- \n',
               '- SOLVING FOR HEAD \n',
               '-\n',
               '- NO OUTPUT CONTROL FOR STRESS PERIOD   46   TIME STEP    8\n',
               '- \n',
               '- SOLVING FOR HEAD \n',
               '-\n',
               '- NO OUTPUT CONTROL FOR STRESS PERIOD   46   TIME STEP    9\n',
               '- \n',
               '- SOLVING FOR HEAD \n',
               '-\n',
               '- NO OUTPUT CONTROL FOR STRESS PERIOD   46   TIME STEP   10\n',
               '- \n',
               '- SOLVING FOR HEAD \n',
               '-\n',
               '- NO OUTPUT CONTROL FOR STRESS PERIOD   46   TIME STEP   11\n',
               '- \n',
               '- SOLVING FOR HEAD \n',
               '-\n',
               '- NO OUTPUT CONTROL FOR STRESS PERIOD   46   TIME STEP   12\n',
               '- \n',
               '- SOLVING FOR HEAD \n',
               '-\n',
               '- NO OUTPUT CONTROL FOR STRESS PERIOD   46   TIME STEP   13\n',
               '- \n',
               '- SOLVING FOR HEAD \n',
               '-\n',
               '- NO OUTPUT CONTROL FOR STRESS PERIOD   46   TIME STEP   14\n',
               '- \n',
               '- SOLVING FOR HEAD \n',
               '-\n',
               '- NO OUTPUT CONTROL FOR STRESS PERIOD   46   TIME STEP   15\n',
               '- \n',
               '- SOLVING FOR HEAD \n',
               '-\n',
               '- NO OUTPUT CONTROL FOR STRESS PERIOD   46   TIME STEP   16\n',
               '- \n',
               '- SOLVING FOR HEAD \n',
               '-\n',
               '- NO OUTPUT CONTROL FOR STRESS PERIOD   46   TIME STEP   17\n',
               '- \n',
               '- SOLVING FOR HEAD \n',
               '-\n',
               '- NO OUTPUT CONTROL FOR STRESS PERIOD   46   TIME STEP   18\n',
               '- \n',
               '- SOLVING FOR HEAD \n',
               '-\n',
               '- NO OUTPUT CONTROL FOR STRESS PERIOD   46   TIME STEP   19\n',
               '- \n',
               '- SOLVING FOR HEAD \n',
               '-\n',
               '- NO OUTPUT CONTROL FOR STRESS PERIOD   46   TIME STEP   20\n',
               '- \n',
               '- SOLVING FOR HEAD \n',
               '-\n',
               '- NO OUTPUT CONTROL FOR STRESS PERIOD   46   TIME STEP   21\n',
               '- \n',
               '- SOLVING FOR HEAD \n',
               '-\n',
               '- NO OUTPUT CONTROL FOR STRESS PERIOD   46   TIME STEP   22\n',
               '- \n',
               '- SOLVING FOR HEAD \n',
               '-\n',
               '- NO OUTPUT CONTROL FOR STRESS PERIOD   46   TIME STEP   23\n',
               '- \n',
               '- SOLVING FOR HEAD \n',
               '-\n',
               '- NO OUTPUT CONTROL FOR STRESS PERIOD   46   TIME STEP   24\n',
               '- \n',
               '- SOLVING FOR HEAD \n',
               '-\n',
               '- NO OUTPUT CONTROL FOR STRESS PERIOD   46   TIME STEP   25\n',
               '- \n',
               '- SOLVING FOR HEAD \n',
               '-\n',
               '- NO OUTPUT CONTROL FOR STRESS PERIOD   46   TIME STEP   26\n',
               '- \n',
               '- SOLVING FOR HEAD \n',
               '-\n',
               '- NO OUTPUT CONTROL FOR STRESS PERIOD   46   TIME STEP   27\n',
               '- \n',
               '- SOLVING FOR HEAD \n',
               '-\n',
               '- NO OUTPUT CONTROL FOR STRESS PERIOD   46   TIME STEP   28\n',
               '- \n',
               '- SOLVING FOR HEAD \n',
               '-\n',
               '- NO OUTPUT CONTROL FOR STRESS PERIOD   46   TIME STEP   29\n',
               '- \n',
               '- SOLVING FOR HEAD \n',
               '-\n',
               '- NO OUTPUT CONTROL FOR STRESS PERIOD   46   TIME STEP   30\n',
               '-\n',
               '-\n',
               '-\n',
               '- STREAM LISTING     PERIOD     46   STEP       30\n',
               '-\n',
               '- LAYER ROW COL. STREAM  RCH.   FLOW INTO    STREAM     FLOW '
               'OUT OF   OVRLND.    DIRECT     STREAM      STREAM      '
               'STREAM     STREAM  STREAMBED   FLOW TO   CHNG. UNSAT. \n',
               '-                SEG.NO.  NO.   STRM. RCH.    LOSS       STRM. '
               'RCH.   RUNOFF     PRECIP       ET         HEAD        '
               'DEPTH      WIDTH  CONDCTNC.   WAT. TAB.\n',
               '-\n',
               '-   1    4    1     1     1    5.0066E-01  4.2222E-04   '
               '5.0024E-01  0.000E+00  0.000E+00  0.000E+00  1.40385E+02  '
               '5.349E-01  2.453E+00  4.082E-04  4.687E-04 -4.647E-05\n',
               '-   1    4    2     1     2    5.0024E-01  4.2207E-04   '
               '4.9982E-01  0.000E+00  0.000E+00  0.000E+00  1.40085E+02  '
               '5.347E-01  2.452E+00  4.081E-04  4.673E-04 -4.526E-05\n',
               '-   1    4    3     1     3    4.9982E-01  4.2192E-04   '
               '4.9940E-01  0.000E+00  0.000E+00  0.000E+00  1.39785E+02  '
               '5.345E-01  2.452E+00  4.080E-04  4.670E-04 -4.512E-05\n',
               '-   1    4    4     1     4    4.9940E-01  4.2177E-04   '
               '4.9897E-01  0.000E+00  0.000E+00  0.000E+00  1.39484E+02  '
               '5.343E-01  2.452E+00  4.080E-04  4.668E-04 -4.498E-05\n',
               '-   1    4    5     1     5    4.9897E-01  4.2162E-04   '
               '4.9855E-01  0.000E+00  0.000E+00  0.000E+00  1.39184E+02  '
               '5.341E-01  2.452E+00  4.079E-04  4.665E-04 -4.484E-05\n',
               '-   1    4    6     1     6    4.9855E-01  4.2147E-04   '
               '4.9813E-01  0.000E+00  0.000E+00  0.000E+00  1.38884E+02  '
               '5.339E-01  2.451E+00  4.078E-04  4.662E-04 -4.469E-05\n',
               '-   1    4    7     1     7    4.9813E-01  4.2132E-04   '
               '4.9771E-01  0.000E+00  0.000E+00  0.000E+00  1.38584E+02  '
               '5.337E-01  2.451E+00  4.078E-04  4.659E-04 -4.454E-05\n',
               '-   1    4    8     1     8    4.9771E-01  4.2117E-04   '
               '4.9729E-01  0.000E+00  0.000E+00  0.000E+00  1.38284E+02  '
               '5.335E-01  2.451E+00  4.077E-04  4.655E-04 -4.437E-05\n',
               '-   1    4    9     1     9    4.9729E-01  4.2101E-04   '
               '4.9687E-01  0.000E+00  0.000E+00  0.000E+00  1.37983E+02  '
               '5.333E-01  2.451E+00  4.076E-04  4.652E-04 -4.420E-05\n',
               '-   1    4   10     1    10    4.9687E-01  4.2086E-04   '
               '4.9645E-01  0.000E+00  0.000E+00  0.000E+00  1.37683E+02  '
               '5.331E-01  2.450E+00  4.076E-04  4.649E-04 -4.402E-05\n',
               '-   1    4   11     1    11    4.9645E-01  4.2071E-04   '
               '4.9603E-01  0.000E+00  0.000E+00  0.000E+00  1.37383E+02  '
               '5.329E-01  2.450E+00  4.075E-04  4.645E-04 -4.383E-05\n',
               '-   1    4   12     1    12    4.9603E-01  4.2056E-04   '
               '4.9561E-01  0.000E+00  0.000E+00  0.000E+00  1.37083E+02  '
               '5.327E-01  2.450E+00  4.074E-04  4.642E-04 -4.363E-05\n',
               '-   1    4   13     1    13    4.9561E-01  4.2041E-04   '
               '4.9519E-01  0.000E+00  0.000E+00  0.000E+00  1.36783E+02  '
               '5.325E-01  2.450E+00  4.074E-04  4.635E-04 -4.310E-05\n',
               '-   1    4   14     1    14    4.9519E-01  4.2026E-04   '
               '4.9477E-01  0.000E+00  0.000E+00  0.000E+00  1.36482E+02  '
               '5.323E-01  2.449E+00  4.073E-04  4.622E-04 -4.196E-05\n',
               '-   1    4   15     1    15    4.9477E-01  4.2011E-04   '
               '4.9435E-01  0.000E+00  0.000E+00  0.000E+00  1.36182E+02  '
               '5.321E-01  2.449E+00  4.072E-04  4.610E-04 -4.084E-05\n',
               '-   1    4   16     1    16    4.9435E-01  4.1996E-04   '
               '4.9393E-01  0.000E+00  0.000E+00  0.000E+00  1.35882E+02  '
               '5.319E-01  2.449E+00  4.072E-04  4.576E-04 -3.760E-05\n',
               '-   1    4   17     1    17    4.9393E-01  4.1981E-04   '
               '4.9351E-01  0.000E+00  0.000E+00  0.000E+00  1.35582E+02  '
               '5.317E-01  2.449E+00  4.071E-04  4.497E-04 -2.994E-05\n',
               '-   1    4   18     1    18    4.9351E-01  4.1966E-04   '
               '4.9309E-01  0.000E+00  0.000E+00  0.000E+00  1.35281E+02  '
               '5.315E-01  2.448E+00  4.071E-04  4.448E-04 -2.516E-05\n',
               '-   1    4   19     1    19    4.9309E-01  4.1951E-04   '
               '4.9267E-01  0.000E+00  0.000E+00  0.000E+00  1.34981E+02  '
               '5.313E-01  2.448E+00  4.070E-04  4.437E-04 -2.420E-05\n',
               '-   1    4   20     1    20    4.9267E-01  4.1936E-04   '
               '4.9225E-01  0.000E+00  0.000E+00  0.000E+00  1.34681E+02  '
               '5.311E-01  2.448E+00  4.069E-04  4.432E-04 -2.389E-05\n',
               '-   1    4   21     1    21    4.9225E-01  4.1921E-04   '
               '4.9183E-01  0.000E+00  0.000E+00  0.000E+00  1.34381E+02  '
               '5.309E-01  2.448E+00  4.069E-04  4.429E-04 -2.368E-05\n',
               '-   1    4   22     1    22    4.9183E-01  4.1906E-04   '
               '4.9141E-01  0.000E+00  0.000E+00  0.000E+00  1.34081E+02  '
               '5.307E-01  2.447E+00  4.068E-04  4.425E-04 -2.348E-05\n',
               '-   1    4   23     1    23    4.9141E-01  4.1891E-04   '
               '4.9099E-01  0.000E+00  0.000E+00  0.000E+00  1.33780E+02  '
               '5.305E-01  2.447E+00  4.067E-04  4.422E-04 -2.326E-05\n',
               '-   1    4   24     1    24    4.9099E-01  4.1876E-04   '
               '4.9057E-01  0.000E+00  0.000E+00  0.000E+00  1.33480E+02  '
               '5.303E-01  2.447E+00  4.067E-04  4.418E-04 -2.305E-05\n',
               '-   1    4   25     1    25    4.9057E-01  4.1861E-04   '
               '4.9015E-01  0.000E+00  0.000E+00  0.000E+00  1.33180E+02  '
               '5.301E-01  2.447E+00  4.066E-04  4.414E-04 -2.283E-05\n',
               '-   1    4   26     1    26    4.9015E-01  4.1846E-04   '
               '4.8973E-01  0.000E+00  0.000E+00  0.000E+00  1.32880E+02  '
               '5.299E-01  2.446E+00  4.065E-04  4.411E-04 -2.261E-05\n',
               '-   1    4   27     1    27    4.8973E-01  4.1831E-04   '
               '4.8932E-01  0.000E+00  0.000E+00  0.000E+00  1.32580E+02  '
               '5.297E-01  2.446E+00  4.065E-04  4.407E-04 -2.239E-05\n',
               '-   1    4   28     1    28    4.8932E-01  4.1816E-04   '
               '4.8890E-01  0.000E+00  0.000E+00  0.000E+00  1.32279E+02  '
               '5.295E-01  2.446E+00  4.064E-04  4.403E-04 -2.216E-05\n',
               '-   1    4   29     1    29    4.8890E-01  4.1801E-04   '
               '4.8848E-01  0.000E+00  0.000E+00  0.000E+00  1.31979E+02  '
               '5.293E-01  2.446E+00  4.063E-04  4.399E-04 -2.193E-05\n',
               '-   1    4   30     1    30    4.8848E-01  4.1786E-04   '
               '4.8806E-01  0.000E+00  0.000E+00  0.000E+00  1.31679E+02  '
               '5.291E-01  2.445E+00  4.063E-04  4.396E-04 -2.170E-05\n',
               '-   1    4   31     1    31    4.8806E-01  4.1771E-04   '
               '4.8764E-01  0.000E+00  0.000E+00  0.000E+00  1.31379E+02  '
               '5.289E-01  2.445E+00  4.062E-04  4.392E-04 -2.147E-05\n',
               '-   1    4   32     1    32    4.8764E-01  4.1756E-04   '
               '4.8723E-01  0.000E+00  0.000E+00  0.000E+00  1.31079E+02  '
               '5.287E-01  2.445E+00  4.061E-04  4.388E-04 -2.123E-05\n',
               '-   1    4   33     1    33    4.8723E-01  4.1741E-04   '
               '4.8681E-01  0.000E+00  0.000E+00  0.000E+00  1.30778E+02  '
               '5.285E-01  2.445E+00  4.061E-04  4.384E-04 -2.100E-05\n',
               '-   1    4   34     1    34    4.8681E-01  4.1726E-04   '
               '4.8639E-01  0.000E+00  0.000E+00  0.000E+00  1.30478E+02  '
               '5.283E-01  2.445E+00  4.060E-04  4.380E-04 -2.076E-05\n',
               '-   1    4   35     1    35    4.8639E-01  4.1711E-04   '
               '4.8597E-01  0.000E+00  0.000E+00  0.000E+00  1.30178E+02  '
               '5.281E-01  2.444E+00  4.059E-04  4.376E-04 -2.053E-05\n',
               '-   1    4   36     1    36    4.8597E-01  4.1696E-04   '
               '4.8556E-01  0.000E+00  0.000E+00  0.000E+00  1.29878E+02  '
               '5.279E-01  2.444E+00  4.059E-04  4.373E-04 -2.029E-05\n',
               '-   1    4   37     1    37    4.8556E-01  4.1681E-04   '
               '4.8514E-01  0.000E+00  0.000E+00  0.000E+00  1.29578E+02  '
               '5.276E-01  2.444E+00  4.058E-04  4.369E-04 -2.006E-05\n',
               '-   1    4   38     1    38    4.8514E-01  4.1666E-04   '
               '4.8472E-01  0.000E+00  0.000E+00  0.000E+00  1.29277E+02  '
               '5.274E-01  2.444E+00  4.057E-04  4.365E-04 -1.982E-05\n',
               '-   1    4   39     1    39    4.8472E-01  4.1651E-04   '
               '4.8431E-01  0.000E+00  0.000E+00  0.000E+00  1.28977E+02  '
               '5.272E-01  2.443E+00  4.057E-04  4.361E-04 -1.959E-05\n',
               '-   1    4   40     1    40    4.8431E-01  4.1636E-04   '
               '4.8389E-01  0.000E+00  0.000E+00  0.000E+00  1.28677E+02  '
               '5.270E-01  2.443E+00  4.056E-04  4.357E-04 -1.936E-05\n',
               '-   1    4   41     1    41    4.8389E-01  4.1621E-04   '
               '4.8348E-01  0.000E+00  0.000E+00  0.000E+00  1.28377E+02  '
               '5.268E-01  2.443E+00  4.055E-04  4.353E-04 -1.913E-05\n',
               '-   1    4   42     1    42    4.8348E-01  4.1606E-04   '
               '4.8306E-01  0.000E+00  0.000E+00  0.000E+00  1.28077E+02  '
               '5.266E-01  2.443E+00  4.055E-04  4.350E-04 -1.890E-05\n',
               '-   1    4   43     1    43    4.8306E-01  4.1591E-04   '
               '4.8264E-01  0.000E+00  0.000E+00  0.000E+00  1.27776E+02  '
               '5.264E-01  2.442E+00  4.054E-04  4.346E-04 -1.867E-05\n',
               '-   1    4   44     1    44    4.8264E-01  4.1576E-04   '
               '4.8223E-01  0.000E+00  0.000E+00  0.000E+00  1.27476E+02  '
               '5.262E-01  2.442E+00  4.053E-04  4.342E-04 -1.845E-05\n',
               '-   1    4   45     1    45    4.8223E-01  4.1561E-04   '
               '4.8181E-01  0.000E+00  0.000E+00  0.000E+00  1.27176E+02  '
               '5.260E-01  2.442E+00  4.053E-04  4.338E-04 -1.823E-05\n',
               '-   1    4   46     1    46    4.8181E-01  4.1546E-04   '
               '4.8140E-01  0.000E+00  0.000E+00  0.000E+00  1.26876E+02  '
               '5.258E-01  2.442E+00  4.052E-04  4.335E-04 -1.801E-05\n',
               '-   1    4   47     1    47    4.8140E-01  4.1531E-04   '
               '4.8098E-01  0.000E+00  0.000E+00  0.000E+00  1.26576E+02  '
               '5.256E-01  2.441E+00  4.051E-04  4.331E-04 -1.780E-05\n',
               '-   1    4   48     1    48    4.8098E-01  4.1516E-04   '
               '4.8057E-01  0.000E+00  0.000E+00  0.000E+00  1.26275E+02  '
               '5.254E-01  2.441E+00  4.051E-04  4.327E-04 -1.759E-05\n',
               '-   1    4   49     1    49    4.8057E-01  4.1501E-04   '
               '4.8015E-01  0.000E+00  0.000E+00  0.000E+00  1.25975E+02  '
               '5.252E-01  2.441E+00  4.050E-04  4.324E-04 -1.738E-05\n',
               '-   1    4   50     1    50    4.8015E-01  4.1486E-04   '
               '4.7974E-01  0.000E+00  0.000E+00  0.000E+00  1.25675E+02  '
               '5.250E-01  2.441E+00  4.049E-04  4.320E-04 -1.717E-05\n',
               '-   1    4   51     1    51    4.7974E-01  4.1471E-04   '
               '4.7932E-01  0.000E+00  0.000E+00  0.000E+00  1.25375E+02  '
               '5.248E-01  2.440E+00  4.049E-04  4.317E-04 -1.697E-05\n',
               '-   1    4   52     1    52    4.7932E-01  4.1456E-04   '
               '4.7891E-01  0.000E+00  0.000E+00  0.000E+00  1.25075E+02  '
               '5.246E-01  2.440E+00  4.048E-04  4.313E-04 -1.678E-05\n',
               '-   1    4   53     1    53    4.7891E-01  4.1442E-04   '
               '4.7849E-01  0.000E+00  0.000E+00  0.000E+00  1.24774E+02  '
               '5.244E-01  2.440E+00  4.047E-04  4.310E-04 -1.659E-05\n',
               '-   1    4   54     1    54    4.7849E-01  4.1427E-04   '
               '4.7808E-01  0.000E+00  0.000E+00  0.000E+00  1.24474E+02  '
               '5.242E-01  2.440E+00  4.047E-04  4.307E-04 -1.640E-05\n',
               '-   1    4   55     1    55    4.7808E-01  4.1412E-04   '
               '4.7766E-01  0.000E+00  0.000E+00  0.000E+00  1.24174E+02  '
               '5.240E-01  2.439E+00  4.046E-04  4.303E-04 -1.622E-05\n',
               '-   1    4   56     1    56    4.7766E-01  4.1397E-04   '
               '4.7725E-01  0.000E+00  0.000E+00  0.000E+00  1.23874E+02  '
               '5.238E-01  2.439E+00  4.045E-04  4.305E-04 -1.649E-05\n',
               '-   1    4   57     1    57    4.7725E-01  4.1382E-04   '
               '4.7684E-01  0.000E+00  0.000E+00  0.000E+00  1.23574E+02  '
               '5.236E-01  2.439E+00  4.045E-04  4.310E-04 -1.722E-05\n',
               '-   1    4   58     1    58    4.7684E-01  4.1367E-04   '
               '4.7642E-01  0.000E+00  0.000E+00  0.000E+00  1.23273E+02  '
               '5.234E-01  2.439E+00  4.044E-04  4.317E-04 -1.800E-05\n',
               '-   1    4   59     1    59    4.7642E-01  4.1352E-04   '
               '4.7601E-01  0.000E+00  0.000E+00  0.000E+00  1.22973E+02  '
               '5.232E-01  2.438E+00  4.043E-04  4.324E-04 -1.884E-05\n',
               '-   1    4   60     1    60    4.7601E-01  4.1337E-04   '
               '4.7560E-01  0.000E+00  0.000E+00  0.000E+00  1.22673E+02  '
               '5.230E-01  2.438E+00  4.043E-04  4.331E-04 -1.974E-05\n',
               '-   1    4   61     1    61    4.7560E-01  4.1322E-04   '
               '4.7518E-01  0.000E+00  0.000E+00  0.000E+00  1.22373E+02  '
               '5.228E-01  2.438E+00  4.042E-04  4.329E-04 -1.965E-05\n',
               '-   1    4   62     1    62    4.7518E-01  4.1307E-04   '
               '4.7477E-01  0.000E+00  0.000E+00  0.000E+00  1.22073E+02  '
               '5.226E-01  2.438E+00  4.041E-04  4.325E-04 -1.948E-05\n',
               '-   1    4   63     1    63    4.7477E-01  4.1292E-04   '
               '4.7436E-01  0.000E+00  0.000E+00  0.000E+00  1.21772E+02  '
               '5.224E-01  2.438E+00  4.041E-04  4.322E-04 -1.931E-05\n',
               '-   1    4   64     1    64    4.7436E-01  4.1277E-04   '
               '4.7394E-01  0.000E+00  0.000E+00  0.000E+00  1.21472E+02  '
               '5.222E-01  2.437E+00  4.040E-04  4.319E-04 -1.915E-05\n',
               '-   1    4   65     1    65    4.7394E-01  4.1263E-04   '
               '4.7353E-01  0.000E+00  0.000E+00  0.000E+00  1.21172E+02  '
               '5.220E-01  2.437E+00  4.040E-04  4.316E-04 -1.898E-05\n',
               '-   1    4   66     1    66    4.7353E-01  4.1248E-04   '
               '4.7312E-01  0.000E+00  0.000E+00  0.000E+00  1.20872E+02  '
               '5.218E-01  2.437E+00  4.039E-04  4.313E-04 -1.882E-05\n',
               '-   1    4   67     1    67    4.7312E-01  4.1233E-04   '
               '4.7271E-01  0.000E+00  0.000E+00  0.000E+00  1.20572E+02  '
               '5.216E-01  2.437E+00  4.038E-04  4.310E-04 -1.867E-05\n',
               '-   1    4   68     1    68    4.7271E-01  4.1218E-04   '
               '4.7229E-01  0.000E+00  0.000E+00  0.000E+00  1.20271E+02  '
               '5.214E-01  2.436E+00  4.038E-04  4.336E-04 -2.142E-05\n',
               '-   1    4   69     1    69    4.7229E-01  4.1203E-04   '
               '4.7188E-01  0.000E+00  0.000E+00  0.000E+00  1.19971E+02  '
               '5.212E-01  2.436E+00  4.037E-04  4.432E-04 -3.118E-05\n',
               '-   1    4   70     1    70    4.7188E-01  4.1188E-04   '
               '4.7147E-01  0.000E+00  0.000E+00  0.000E+00  1.19671E+02  '
               '5.210E-01  2.436E+00  4.036E-04  4.462E-04 -3.436E-05\n',
               '-   1    4   71     1    71    4.7147E-01  4.1173E-04   '
               '4.7106E-01  0.000E+00  0.000E+00  0.000E+00  1.19371E+02  '
               '5.208E-01  2.436E+00  4.036E-04  4.459E-04 -3.420E-05\n',
               '-   1    4   72     1    72    4.7106E-01  4.1158E-04   '
               '4.7065E-01  0.000E+00  0.000E+00  0.000E+00  1.19071E+02  '
               '5.206E-01  2.435E+00  4.035E-04  4.456E-04 -3.404E-05\n',
               '-   1    4   73     1    73    4.7065E-01  4.1143E-04   '
               '4.7024E-01  0.000E+00  0.000E+00  0.000E+00  1.18770E+02  '
               '5.204E-01  2.435E+00  4.034E-04  4.453E-04 -3.387E-05\n',
               '-   1    4   74     1    74    4.7024E-01  4.1129E-04   '
               '4.6982E-01  0.000E+00  0.000E+00  0.000E+00  1.18470E+02  '
               '5.202E-01  2.435E+00  4.034E-04  4.450E-04 -3.376E-05\n',
               '-   1    4   75     1    75    4.6982E-01  4.1114E-04   '
               '4.6941E-01  0.000E+00  0.000E+00  0.000E+00  1.18170E+02  '
               '5.200E-01  2.435E+00  4.033E-04  4.464E-04 -3.528E-05\n',
               '-   1    4   76     1    76    4.6941E-01  4.1099E-04   '
               '4.6900E-01  0.000E+00  0.000E+00  0.000E+00  1.17870E+02  '
               '5.198E-01  2.434E+00  4.032E-04  4.479E-04 -3.686E-05\n',
               '-   1    4   77     1    77    4.6900E-01  4.1084E-04   '
               '4.6859E-01  0.000E+00  0.000E+00  0.000E+00  1.17570E+02  '
               '5.196E-01  2.434E+00  4.032E-04  4.483E-04 -3.744E-05\n',
               '-   1    4   78     1    78    4.6859E-01  4.1069E-04   '
               '4.6818E-01  0.000E+00  0.000E+00  0.000E+00  1.17269E+02  '
               '5.194E-01  2.434E+00  4.031E-04  4.479E-04 -3.726E-05\n',
               '-   1    4   79     1    79    4.6818E-01  4.1054E-04   '
               '4.6777E-01  0.000E+00  0.000E+00  0.000E+00  1.16969E+02  '
               '5.192E-01  2.434E+00  4.030E-04  4.476E-04 -3.708E-05\n',
               '-   1    4   80     1    80    4.6777E-01  4.1039E-04   '
               '4.6736E-01  0.000E+00  0.000E+00  0.000E+00  1.16669E+02  '
               '5.190E-01  2.433E+00  4.030E-04  4.490E-04 -3.862E-05\n',
               '-   1    4   81     1    81    4.6736E-01  4.1025E-04   '
               '4.6695E-01  0.000E+00  0.000E+00  0.000E+00  1.16369E+02  '
               '5.188E-01  2.433E+00  4.029E-04  4.505E-04 -4.027E-05\n',
               '-   1    4   82     1    82    4.6695E-01  4.1010E-04   '
               '4.6654E-01  0.000E+00  0.000E+00  0.000E+00  1.16069E+02  '
               '5.186E-01  2.433E+00  4.028E-04  4.507E-04 -4.058E-05\n',
               '-   1    4   83     1    83    4.6654E-01  4.0995E-04   '
               '4.6613E-01  0.000E+00  0.000E+00  0.000E+00  1.15768E+02  '
               '5.184E-01  2.433E+00  4.028E-04  4.505E-04 -4.057E-05\n',
               '-   1    4   84     1    84    4.6613E-01  4.0980E-04   '
               '4.6572E-01  0.000E+00  0.000E+00  0.000E+00  1.15468E+02  '
               '5.182E-01  2.432E+00  4.027E-04  4.520E-04 -4.216E-05\n',
               '-   1    4   85     1    85    4.6572E-01  4.0965E-04   '
               '4.6531E-01  0.000E+00  0.000E+00  0.000E+00  1.15168E+02  '
               '5.180E-01  2.432E+00  4.026E-04  4.535E-04 -4.381E-05\n',
               '-   1    4   86     1    86    4.6531E-01  4.0950E-04   '
               '4.6490E-01  0.000E+00  0.000E+00  0.000E+00  1.14868E+02  '
               '5.178E-01  2.432E+00  4.026E-04  4.533E-04 -4.383E-05\n',
               '-   1    4   87     1    87    4.6490E-01  4.0936E-04   '
               '4.6449E-01  0.000E+00  0.000E+00  0.000E+00  1.14568E+02  '
               '5.176E-01  2.432E+00  4.025E-04  4.547E-04 -4.535E-05\n',
               '-   1    4   88     1    88    4.6449E-01  4.0921E-04   '
               '4.6408E-01  0.000E+00  0.000E+00  0.000E+00  1.14267E+02  '
               '5.173E-01  2.431E+00  4.024E-04  4.560E-04 -4.683E-05\n',
               '-   1    4   89     1    89    4.6408E-01  4.0906E-04   '
               '4.6367E-01  0.000E+00  0.000E+00  0.000E+00  1.13967E+02  '
               '5.171E-01  2.431E+00  4.024E-04  4.570E-04 -4.792E-05\n',
               '-   1    4   90     1    90    4.6367E-01  4.0891E-04   '
               '4.6326E-01  0.000E+00  0.000E+00  0.000E+00  1.13667E+02  '
               '5.169E-01  2.431E+00  4.023E-04  4.584E-04 -4.947E-05\n',
               '-   1    4   91     1    91    4.6326E-01  4.0876E-04   '
               '4.6286E-01  0.000E+00  0.000E+00  0.000E+00  1.13367E+02  '
               '5.167E-01  2.431E+00  4.022E-04  4.597E-04 -5.094E-05\n',
               '-   1    4   92     1    92    4.6286E-01  4.0861E-04   '
               '4.6245E-01  0.000E+00  0.000E+00  0.000E+00  1.13067E+02  '
               '5.165E-01  2.431E+00  4.022E-04  4.614E-04 -5.278E-05\n',
               '-   1    4   93     1    93    4.6245E-01  4.0847E-04   '
               '4.6204E-01  0.000E+00  0.000E+00  0.000E+00  1.12766E+02  '
               '5.163E-01  2.430E+00  4.021E-04  4.624E-04 -5.390E-05\n',
               '-   1    4   94     1    94    4.6204E-01  4.0832E-04   '
               '4.6163E-01  0.000E+00  0.000E+00  0.000E+00  1.12466E+02  '
               '5.161E-01  2.430E+00  4.020E-04  4.659E-04 -5.753E-05\n',
               '-   1    4   95     1    95    4.6163E-01  4.0817E-04   '
               '4.6122E-01  0.000E+00  0.000E+00  0.000E+00  1.12166E+02  '
               '5.159E-01  2.430E+00  4.020E-04  4.665E-04 -5.826E-05\n',
               '-   1    4   96     1    96    4.6122E-01  4.0802E-04   '
               '4.6081E-01  0.000E+00  0.000E+00  0.000E+00  1.11866E+02  '
               '5.157E-01  2.430E+00  4.019E-04  4.673E-04 -5.921E-05\n',
               '-   1    4   97     1    97    4.6081E-01  4.0787E-04   '
               '4.6041E-01  0.000E+00  0.000E+00  0.000E+00  1.11566E+02  '
               '5.155E-01  2.429E+00  4.018E-04  4.683E-04 -6.040E-05\n',
               '-   1    4   98     1    98    4.6041E-01  4.0773E-04   '
               '4.6000E-01  0.000E+00  0.000E+00  0.000E+00  1.11265E+02  '
               '5.153E-01  2.429E+00  4.018E-04  4.827E-04 -7.491E-05\n',
               '-   1    4   99     1    99    4.6000E-01  4.0758E-04   '
               '4.5959E-01  0.000E+00  0.000E+00  0.000E+00  1.10965E+02  '
               '5.151E-01  2.429E+00  4.017E-04  4.912E-04 -8.361E-05\n',
               '-   1    4  100     1   100    4.5959E-01  4.0743E-04   '
               '4.5918E-01  0.000E+00  0.000E+00  0.000E+00  1.10665E+02  '
               '5.149E-01  2.429E+00  4.016E-04  4.935E-04 -8.609E-05\n',
               '-\n',
               '-\n',
               '-\n',
               '-1\n',
               '-  VOLUMETRIC BUDGET FOR UNSATURATED ZONE BENEATH STREAMS AT '
               'END OF TIME STEP    30 STRESS PERIOD  46\n',
               '-  '
               '------------------------------------------------------------------------------------------------\n',
               '-\n',
               '-    CUMULATIVE VOLUMES             L**3    RATES FOR THIS '
               'TIME STEP         L**3/T\n',
               '-    ------------------                     '
               '------------------------\n',
               '-\n',
               '-\n',
               '-          STREAM LOSS =     34967084.0000            STREAM '
               'LOSS =        4.1480E-02\n',
               '-    CHANGE IN STORAGE =       323138.5938      CHANGE IN '
               'STORAGE =       -3.2463E-03\n',
               '-       RECHARGE TO GW =     34647944.0000         RECHARGE TO '
               'GW =        4.4727E-02\n',
               '-\n',
               '-             TOTAL IN =     34967084.0000               TOTAL '
               'IN =        4.4726E-02\n',
               '-\n',
               '-            TOTAL OUT =     34971084.0000              TOTAL '
               'OUT =        4.4727E-02\n',
               '-\n',
               '-             IN - OUT =        -4000.0000               IN - '
               'OUT =       -1.7509E-07\n',
               '-\n',
               '-  PERCENT DISCREPANCY =           -0.00      PERCENT '
               'DISCREPANCY =            -0.00\n',
               '-\n',
               '-\n',
               '-\n',
               '-1\n',
               '-  VOLUMETRIC BUDGET FOR ENTIRE MODEL AT END OF TIME STEP   '
               '30, STRESS PERIOD  46\n',
               '-  '
               '------------------------------------------------------------------------------\n',
               '-\n',
               '-     CUMULATIVE VOLUMES      L**3       RATES FOR THIS TIME '
               'STEP      L**3/T\n',
               '-     ------------------                 '
               '------------------------\n',
               '-\n',
               '-           IN:                                      IN:\n',
               '-           ---                                      ---\n',
               '-             STORAGE =    17080330.0000               STORAGE '
               '=           0.1504\n',
               '-       CONSTANT HEAD =           0.0000         CONSTANT HEAD '
               '=           0.0000\n',
               '-     HEAD DEP BOUNDS =           0.0000       HEAD DEP BOUNDS '
               '=           0.0000\n',
               '-      STREAM LEAKAGE =    34647788.0000        STREAM LEAKAGE '
               '=       4.4727E-02\n',
               '-\n',
               '-            TOTAL IN =    51728120.0000              TOTAL IN '
               '=           0.1952\n',
               '-\n',
               '-          OUT:                                     OUT:\n',
               '-          ----                                     ----\n',
               '-             STORAGE =    17096418.0000               STORAGE '
               '=           0.0000\n',
               '-       CONSTANT HEAD =           0.0000         CONSTANT HEAD '
               '=           0.0000\n',
               '-     HEAD DEP BOUNDS =    34631128.0000       HEAD DEP BOUNDS '
               '=           0.1950\n',
               '-      STREAM LEAKAGE =           0.0000        STREAM LEAKAGE '
               '=           0.0000\n',
               '-\n',
               '-           TOTAL OUT =    51727544.0000             TOTAL OUT '
               '=           0.1950\n',
               '-\n',
               '-            IN - OUT =         576.0000              IN - OUT '
               '=       1.4047E-04\n',
               '-\n',
               '- PERCENT DISCREPANCY =           0.00     PERCENT DISCREPANCY '
               '=           0.07\n',
               '-\n',
               '-\n',
               '-\n',
               '-\n',
               '-\n',
               '-\n',
               '-         TIME SUMMARY AT END OF TIME STEP   30 IN STRESS '
               'PERIOD   46\n',
               '-                    SECONDS     MINUTES      HOURS       '
               'DAYS        YEARS\n',
               '-                    '
               '-----------------------------------------------------------\n',
               '-   TIME STEP LENGTH 2.49961E+05  4166.0      69.434      '
               '2.8931     7.92080E-03\n',
               '- STRESS PERIOD TIME 2.59200E+06  43200.      720.00      '
               '30.000     8.21355E-02\n',
               '-         TOTAL TIME 1.19232E+08 1.98720E+06  33120.      '
               '1380.0      3.7782    \n',
               '-1\n',
               '-1\n',
               '-                            STRESS PERIOD NO.   47, LENGTH '
               '=   2592000.    \n',
               '-                            '
               '-----------------------------------------------\n',
               '-\n',
               '-                              NUMBER OF TIME STEPS =    30\n',
               '-\n',
               '-                               MULTIPLIER FOR DELT =     '
               '1.100\n',
               '-\n',
               '-                            INITIAL TIME STEP SIZE =   '
               '15757.40    \n',
               '-\n',
               '- REUSING NON-PARAMETER GHB CELLS FROM LAST STRESS PERIOD\n',
               '-\n',
               '-      7 GHB CELLS\n',
               '- \n',
               '- SOLVING FOR HEAD \n',
               '-\n',
               '- NO OUTPUT CONTROL FOR STRESS PERIOD   47   TIME STEP    1\n',
               '- \n',
               '- SOLVING FOR HEAD \n',
               '-\n',
               '- NO OUTPUT CONTROL FOR STRESS PERIOD   47   TIME STEP    2\n',
               '- \n',
               '- SOLVING FOR HEAD \n',
               '-\n',
               '- NO OUTPUT CONTROL FOR STRESS PERIOD   47   TIME STEP    3\n',
               '- \n',
               '- SOLVING FOR HEAD \n',
               '-\n',
               '- NO OUTPUT CONTROL FOR STRESS PERIOD   47   TIME STEP    4\n',
               '- \n',
               '- SOLVING FOR HEAD \n',
               '-\n',
               '- NO OUTPUT CONTROL FOR STRESS PERIOD   47   TIME STEP    5\n',
               '- \n',
               '- SOLVING FOR HEAD \n',
               '-\n',
               '- NO OUTPUT CONTROL FOR STRESS PERIOD   47   TIME STEP    6\n',
               '- \n',
               '- SOLVING FOR HEAD \n',
               '-\n',
               '- NO OUTPUT CONTROL FOR STRESS PERIOD   47   TIME STEP    7\n',
               '- \n',
               '- SOLVING FOR HEAD \n',
               '-\n',
               '- NO OUTPUT CONTROL FOR STRESS PERIOD   47   TIME STEP    8\n',
               '- \n',
               '- SOLVING FOR HEAD \n',
               '-\n',
               '- NO OUTPUT CONTROL FOR STRESS PERIOD   47   TIME STEP    9\n',
               '- \n',
               '- SOLVING FOR HEAD \n',
               '-\n',
               '- NO OUTPUT CONTROL FOR STRESS PERIOD   47   TIME STEP   10\n',
               '- \n',
               '- SOLVING FOR HEAD \n',
               '-\n',
               '- NO OUTPUT CONTROL FOR STRESS PERIOD   47   TIME STEP   11\n',
               '- \n',
               '- SOLVING FOR HEAD \n',
               '-\n',
               '- NO OUTPUT CONTROL FOR STRESS PERIOD   47   TIME STEP   12\n',
               '- \n',
               '- SOLVING FOR HEAD \n',
               '-\n',
               '- NO OUTPUT CONTROL FOR STRESS PERIOD   47   TIME STEP   13\n',
               '- \n',
               '- SOLVING FOR HEAD \n',
               '-\n',
               '- NO OUTPUT CONTROL FOR STRESS PERIOD   47   TIME STEP   14\n',
               '- \n',
               '- SOLVING FOR HEAD \n',
               '-\n',
               '- NO OUTPUT CONTROL FOR STRESS PERIOD   47   TIME STEP   15\n',
               '- \n',
               '- SOLVING FOR HEAD \n',
               '-\n',
               '- NO OUTPUT CONTROL FOR STRESS PERIOD   47   TIME STEP   16\n',
               '- \n',
               '- SOLVING FOR HEAD \n',
               '-\n',
               '- NO OUTPUT CONTROL FOR STRESS PERIOD   47   TIME STEP   17\n',
               '- \n',
               '- SOLVING FOR HEAD \n',
               '-\n',
               '- NO OUTPUT CONTROL FOR STRESS PERIOD   47   TIME STEP   18\n',
               '- \n',
               '- SOLVING FOR HEAD \n',
               '-\n',
               '- NO OUTPUT CONTROL FOR STRESS PERIOD   47   TIME STEP   19\n',
               '- \n',
               '- SOLVING FOR HEAD \n',
               '-\n',
               '- NO OUTPUT CONTROL FOR STRESS PERIOD   47   TIME STEP   20\n',
               '- \n',
               '- SOLVING FOR HEAD \n',
               '-\n',
               '- NO OUTPUT CONTROL FOR STRESS PERIOD   47   TIME STEP   21\n',
               '- \n',
               '- SOLVING FOR HEAD \n',
               '-\n',
               '- NO OUTPUT CONTROL FOR STRESS PERIOD   47   TIME STEP   22\n',
               '- \n',
               '- SOLVING FOR HEAD \n',
               '-\n',
               '- NO OUTPUT CONTROL FOR STRESS PERIOD   47   TIME STEP   23\n',
               '- \n',
               '- SOLVING FOR HEAD \n',
               '-\n',
               '- NO OUTPUT CONTROL FOR STRESS PERIOD   47   TIME STEP   24\n',
               '- \n',
               '- SOLVING FOR HEAD \n',
               '-\n',
               '- NO OUTPUT CONTROL FOR STRESS PERIOD   47   TIME STEP   25\n',
               '- \n',
               '- SOLVING FOR HEAD \n',
               '-\n',
               '- NO OUTPUT CONTROL FOR STRESS PERIOD   47   TIME STEP   26\n',
               '- \n',
               '- SOLVING FOR HEAD \n',
               '-\n',
               '- NO OUTPUT CONTROL FOR STRESS PERIOD   47   TIME STEP   27\n',
               '- \n',
               '- SOLVING FOR HEAD \n',
               '-\n',
               '- NO OUTPUT CONTROL FOR STRESS PERIOD   47   TIME STEP   28\n',
               '- \n',
               '- SOLVING FOR HEAD \n',
               '-\n',
               '- NO OUTPUT CONTROL FOR STRESS PERIOD   47   TIME STEP   29\n',
               '- \n',
               '- SOLVING FOR HEAD \n',
               '-\n',
               '- NO OUTPUT CONTROL FOR STRESS PERIOD   47   TIME STEP   30\n',
               '-\n',
               '-\n',
               '-\n',
               '- STREAM LISTING     PERIOD     47   STEP       30\n',
               '-\n',
               '- LAYER ROW COL. STREAM  RCH.   FLOW INTO    STREAM     FLOW '
               'OUT OF   OVRLND.    DIRECT     STREAM      STREAM      '
               'STREAM     STREAM  STREAMBED   FLOW TO   CHNG. UNSAT. \n',
               '-                SEG.NO.  NO.   STRM. RCH.    LOSS       STRM. '
               'RCH.   RUNOFF     PRECIP       ET         HEAD        '
               'DEPTH      WIDTH  CONDCTNC.   WAT. TAB.\n',
               '-\n',
               '-   1    4    1     1     1    2.1009E+00  9.2196E-04   '
               '2.1000E+00  0.000E+00  0.000E+00  0.000E+00  1.40927E+02  '
               '1.077E+00  3.100E+00  5.849E-04  9.466E-04 -2.463E-05\n',
               '-   1    4    2     1     2    2.1000E+00  9.2169E-04   '
               '2.0991E+00  0.000E+00  0.000E+00  0.000E+00  1.40626E+02  '
               '1.076E+00  3.100E+00  5.848E-04  9.457E-04 -2.400E-05\n',
               '-   1    4    3     1     3    2.0991E+00  9.2143E-04   '
               '2.0982E+00  0.000E+00  0.000E+00  0.000E+00  1.40326E+02  '
               '1.076E+00  3.100E+00  5.848E-04  9.453E-04 -2.392E-05\n',
               '-   1    4    4     1     4    2.0982E+00  9.2116E-04   '
               '2.0972E+00  0.000E+00  0.000E+00  0.000E+00  1.40026E+02  '
               '1.076E+00  3.100E+00  5.847E-04  9.450E-04 -2.382E-05\n',
               '-   1    4    5     1     5    2.0972E+00  9.2089E-04   '
               '2.0963E+00  0.000E+00  0.000E+00  0.000E+00  1.39726E+02  '
               '1.076E+00  3.099E+00  5.846E-04  9.446E-04 -2.372E-05\n',
               '-   1    4    6     1     6    2.0963E+00  9.2062E-04   '
               '2.0954E+00  0.000E+00  0.000E+00  0.000E+00  1.39425E+02  '
               '1.075E+00  3.099E+00  5.845E-04  9.442E-04 -2.360E-05\n',
               '-   1    4    7     1     7    2.0954E+00  9.2036E-04   '
               '2.0945E+00  0.000E+00  0.000E+00  0.000E+00  1.39125E+02  '
               '1.075E+00  3.099E+00  5.844E-04  9.438E-04 -2.347E-05\n',
               '-   1    4    8     1     8    2.0945E+00  9.2009E-04   '
               '2.0936E+00  0.000E+00  0.000E+00  0.000E+00  1.38825E+02  '
               '1.075E+00  3.098E+00  5.844E-04  9.434E-04 -2.335E-05\n',
               '-   1    4    9     1     9    2.0936E+00  9.1982E-04   '
               '2.0926E+00  0.000E+00  0.000E+00  0.000E+00  1.38525E+02  '
               '1.075E+00  3.098E+00  5.843E-04  9.428E-04 -2.301E-05\n',
               '-   1    4   10     1    10    2.0926E+00  9.1956E-04   '
               '2.0917E+00  0.000E+00  0.000E+00  0.000E+00  1.38224E+02  '
               '1.074E+00  3.098E+00  5.842E-04  9.412E-04 -2.162E-05\n',
               '-   1    4   11     1    11    2.0917E+00  9.1929E-04   '
               '2.0908E+00  0.000E+00  0.000E+00  0.000E+00  1.37924E+02  '
               '1.074E+00  3.098E+00  5.841E-04  9.396E-04 -2.027E-05\n',
               '-   1    4   12     1    12    2.0908E+00  9.1902E-04   '
               '2.0899E+00  0.000E+00  0.000E+00  0.000E+00  1.37624E+02  '
               '1.074E+00  3.097E+00  5.840E-04  9.380E-04 -1.895E-05\n',
               '-   1    4   13     1    13    2.0899E+00  9.1876E-04   '
               '2.0890E+00  0.000E+00  0.000E+00  0.000E+00  1.37324E+02  '
               '1.074E+00  3.097E+00  5.840E-04  9.367E-04 -1.798E-05\n',
               '-   1    4   14     1    14    2.0890E+00  9.1849E-04   '
               '2.0880E+00  0.000E+00  0.000E+00  0.000E+00  1.37023E+02  '
               '1.073E+00  3.097E+00  5.839E-04  9.363E-04 -1.785E-05\n',
               '-   1    4   15     1    15    2.0880E+00  9.1823E-04   '
               '2.0871E+00  0.000E+00  0.000E+00  0.000E+00  1.36723E+02  '
               '1.073E+00  3.096E+00  5.838E-04  9.359E-04 -1.771E-05\n',
               '-   1    4   16     1    16    2.0871E+00  9.1796E-04   '
               '2.0862E+00  0.000E+00  0.000E+00  0.000E+00  1.36423E+02  '
               '1.073E+00  3.096E+00  5.837E-04  9.355E-04 -1.757E-05\n',
               '-   1    4   17     1    17    2.0862E+00  9.1769E-04   '
               '2.0853E+00  0.000E+00  0.000E+00  0.000E+00  1.36123E+02  '
               '1.073E+00  3.096E+00  5.836E-04  9.351E-04 -1.742E-05\n',
               '-   1    4   18     1    18    2.0853E+00  9.1743E-04   '
               '2.0844E+00  0.000E+00  0.000E+00  0.000E+00  1.35822E+02  '
               '1.072E+00  3.096E+00  5.836E-04  9.347E-04 -1.726E-05\n',
               '-   1    4   19     1    19    2.0844E+00  9.1716E-04   '
               '2.0835E+00  0.000E+00  0.000E+00  0.000E+00  1.35522E+02  '
               '1.072E+00  3.095E+00  5.835E-04  9.343E-04 -1.710E-05\n',
               '-   1    4   20     1    20    2.0835E+00  9.1689E-04   '
               '2.0825E+00  0.000E+00  0.000E+00  0.000E+00  1.35222E+02  '
               '1.072E+00  3.095E+00  5.834E-04  9.338E-04 -1.694E-05\n',
               '-   1    4   21     1    21    2.0825E+00  9.1663E-04   '
               '2.0816E+00  0.000E+00  0.000E+00  0.000E+00  1.34922E+02  '
               '1.072E+00  3.095E+00  5.833E-04  9.334E-04 -1.677E-05\n',
               '-   1    4   22     1    22    2.0816E+00  9.1636E-04   '
               '2.0807E+00  0.000E+00  0.000E+00  0.000E+00  1.34621E+02  '
               '1.071E+00  3.094E+00  5.833E-04  9.330E-04 -1.660E-05\n',
               '-   1    4   23     1    23    2.0807E+00  9.1610E-04   '
               '2.0798E+00  0.000E+00  0.000E+00  0.000E+00  1.34321E+02  '
               '1.071E+00  3.094E+00  5.832E-04  9.325E-04 -1.642E-05\n',
               '-   1    4   24     1    24    2.0798E+00  9.1583E-04   '
               '2.0789E+00  0.000E+00  0.000E+00  0.000E+00  1.34021E+02  '
               '1.071E+00  3.094E+00  5.831E-04  9.321E-04 -1.624E-05\n',
               '-   1    4   25     1    25    2.0789E+00  9.1557E-04   '
               '2.0780E+00  0.000E+00  0.000E+00  0.000E+00  1.33721E+02  '
               '1.071E+00  3.094E+00  5.830E-04  9.316E-04 -1.606E-05\n',
               '-   1    4   26     1    26    2.0780E+00  9.1530E-04   '
               '2.0770E+00  0.000E+00  0.000E+00  0.000E+00  1.33420E+02  '
               '1.070E+00  3.093E+00  5.829E-04  9.312E-04 -1.587E-05\n',
               '-   1    4   27     1    27    2.0770E+00  9.1503E-04   '
               '2.0761E+00  0.000E+00  0.000E+00  0.000E+00  1.33120E+02  '
               '1.070E+00  3.093E+00  5.829E-04  9.307E-04 -1.568E-05\n',
               '-   1    4   28     1    28    2.0761E+00  9.1477E-04   '
               '2.0752E+00  0.000E+00  0.000E+00  0.000E+00  1.32820E+02  '
               '1.070E+00  3.093E+00  5.828E-04  9.303E-04 -1.549E-05\n',
               '-   1    4   29     1    29    2.0752E+00  9.1450E-04   '
               '2.0743E+00  0.000E+00  0.000E+00  0.000E+00  1.32520E+02  '
               '1.070E+00  3.092E+00  5.827E-04  9.298E-04 -1.529E-05\n',
               '-   1    4   30     1    30    2.0743E+00  9.1424E-04   '
               '2.0734E+00  0.000E+00  0.000E+00  0.000E+00  1.32219E+02  '
               '1.069E+00  3.092E+00  5.826E-04  9.293E-04 -1.510E-05\n',
               '-   1    4   31     1    31    2.0734E+00  9.1397E-04   '
               '2.0725E+00  0.000E+00  0.000E+00  0.000E+00  1.31919E+02  '
               '1.069E+00  3.092E+00  5.825E-04  9.289E-04 -1.490E-05\n',
               '-   1    4   32     1    32    2.0725E+00  9.1371E-04   '
               '2.0716E+00  0.000E+00  0.000E+00  0.000E+00  1.31619E+02  '
               '1.069E+00  3.091E+00  5.825E-04  9.284E-04 -1.470E-05\n',
               '-   1    4   33     1    33    2.0716E+00  9.1344E-04   '
               '2.0706E+00  0.000E+00  0.000E+00  0.000E+00  1.31319E+02  '
               '1.069E+00  3.091E+00  5.824E-04  9.279E-04 -1.450E-05\n',
               '-   1    4   34     1    34    2.0706E+00  9.1318E-04   '
               '2.0697E+00  0.000E+00  0.000E+00  0.000E+00  1.31019E+02  '
               '1.069E+00  3.091E+00  5.823E-04  9.275E-04 -1.430E-05\n',
               '-   1    4   35     1    35    2.0697E+00  9.1291E-04   '
               '2.0688E+00  0.000E+00  0.000E+00  0.000E+00  1.30718E+02  '
               '1.068E+00  3.091E+00  5.822E-04  9.270E-04 -1.410E-05\n',
               '-   1    4   36     1    36    2.0688E+00  9.1265E-04   '
               '2.0679E+00  0.000E+00  0.000E+00  0.000E+00  1.30418E+02  '
               '1.068E+00  3.090E+00  5.821E-04  9.265E-04 -1.390E-05\n',
               '-   1    4   37     1    37    2.0679E+00  9.1238E-04   '
               '2.0670E+00  0.000E+00  0.000E+00  0.000E+00  1.30118E+02  '
               '1.068E+00  3.090E+00  5.821E-04  9.261E-04 -1.369E-05\n',
               '-   1    4   38     1    38    2.0670E+00  9.1212E-04   '
               '2.0661E+00  0.000E+00  0.000E+00  0.000E+00  1.29818E+02  '
               '1.068E+00  3.090E+00  5.820E-04  9.256E-04 -1.349E-05\n',
               '-   1    4   39     1    39    2.0661E+00  9.1185E-04   '
               '2.0652E+00  0.000E+00  0.000E+00  0.000E+00  1.29517E+02  '
               '1.067E+00  3.089E+00  5.819E-04  9.251E-04 -1.329E-05\n',
               '-   1    4   40     1    40    2.0652E+00  9.1159E-04   '
               '2.0643E+00  0.000E+00  0.000E+00  0.000E+00  1.29217E+02  '
               '1.067E+00  3.089E+00  5.818E-04  9.247E-04 -1.309E-05\n',
               '-   1    4   41     1    41    2.0643E+00  9.1132E-04   '
               '2.0633E+00  0.000E+00  0.000E+00  0.000E+00  1.28917E+02  '
               '1.067E+00  3.089E+00  5.817E-04  9.242E-04 -1.290E-05\n',
               '-   1    4   42     1    42    2.0633E+00  9.1106E-04   '
               '2.0624E+00  0.000E+00  0.000E+00  0.000E+00  1.28617E+02  '
               '1.067E+00  3.089E+00  5.817E-04  9.238E-04 -1.270E-05\n',
               '-   1    4   43     1    43    2.0624E+00  9.1079E-04   '
               '2.0615E+00  0.000E+00  0.000E+00  0.000E+00  1.28316E+02  '
               '1.066E+00  3.088E+00  5.816E-04  9.233E-04 -1.251E-05\n',
               '-   1    4   44     1    44    2.0615E+00  9.1053E-04   '
               '2.0606E+00  0.000E+00  0.000E+00  0.000E+00  1.28016E+02  '
               '1.066E+00  3.088E+00  5.815E-04  9.228E-04 -1.232E-05\n',
               '-   1    4   45     1    45    2.0606E+00  9.1026E-04   '
               '2.0597E+00  0.000E+00  0.000E+00  0.000E+00  1.27716E+02  '
               '1.066E+00  3.088E+00  5.814E-04  9.224E-04 -1.213E-05\n',
               '-   1    4   46     1    46    2.0597E+00  9.1000E-04   '
               '2.0588E+00  0.000E+00  0.000E+00  0.000E+00  1.27416E+02  '
               '1.066E+00  3.087E+00  5.814E-04  9.219E-04 -1.194E-05\n',
               '-   1    4   47     1    47    2.0588E+00  9.0974E-04   '
               '2.0579E+00  0.000E+00  0.000E+00  0.000E+00  1.27115E+02  '
               '1.065E+00  3.087E+00  5.813E-04  9.215E-04 -1.176E-05\n',
               '-   1    4   48     1    48    2.0579E+00  9.0947E-04   '
               '2.0570E+00  0.000E+00  0.000E+00  0.000E+00  1.26815E+02  '
               '1.065E+00  3.087E+00  5.812E-04  9.211E-04 -1.158E-05\n',
               '-   1    4   49     1    49    2.0570E+00  9.0921E-04   '
               '2.0561E+00  0.000E+00  0.000E+00  0.000E+00  1.26515E+02  '
               '1.065E+00  3.087E+00  5.811E-04  9.206E-04 -1.141E-05\n',
               '-   1    4   50     1    50    2.0561E+00  9.0894E-04   '
               '2.0552E+00  0.000E+00  0.000E+00  0.000E+00  1.26215E+02  '
               '1.065E+00  3.086E+00  5.810E-04  9.202E-04 -1.124E-05\n',
               '-   1    4   51     1    51    2.0552E+00  9.0868E-04   '
               '2.0542E+00  0.000E+00  0.000E+00  0.000E+00  1.25914E+02  '
               '1.064E+00  3.086E+00  5.810E-04  9.197E-04 -1.107E-05\n',
               '-   1    4   52     1    52    2.0542E+00  9.0841E-04   '
               '2.0533E+00  0.000E+00  0.000E+00  0.000E+00  1.25614E+02  '
               '1.064E+00  3.086E+00  5.809E-04  9.193E-04 -1.091E-05\n',
               '-   1    4   53     1    53    2.0533E+00  9.0815E-04   '
               '2.0524E+00  0.000E+00  0.000E+00  0.000E+00  1.25314E+02  '
               '1.064E+00  3.085E+00  5.808E-04  9.189E-04 -1.075E-05\n',
               '-   1    4   54     1    54    2.0524E+00  9.0789E-04   '
               '2.0515E+00  0.000E+00  0.000E+00  0.000E+00  1.25014E+02  '
               '1.064E+00  3.085E+00  5.807E-04  9.185E-04 -1.060E-05\n',
               '-   1    4   55     1    55    2.0515E+00  9.0762E-04   '
               '2.0506E+00  0.000E+00  0.000E+00  0.000E+00  1.24713E+02  '
               '1.063E+00  3.085E+00  5.806E-04  9.181E-04 -1.045E-05\n',
               '-   1    4   56     1    56    2.0506E+00  9.0736E-04   '
               '2.0497E+00  0.000E+00  0.000E+00  0.000E+00  1.24413E+02  '
               '1.063E+00  3.085E+00  5.806E-04  9.177E-04 -1.030E-05\n',
               '-   1    4   57     1    57    2.0497E+00  9.0710E-04   '
               '2.0488E+00  0.000E+00  0.000E+00  0.000E+00  1.24113E+02  '
               '1.063E+00  3.084E+00  5.805E-04  9.173E-04 -1.016E-05\n',
               '-   1    4   58     1    58    2.0488E+00  9.0683E-04   '
               '2.0479E+00  0.000E+00  0.000E+00  0.000E+00  1.23813E+02  '
               '1.063E+00  3.084E+00  5.804E-04  9.168E-04 -1.002E-05\n',
               '-   1    4   59     1    59    2.0479E+00  9.0657E-04   '
               '2.0470E+00  0.000E+00  0.000E+00  0.000E+00  1.23512E+02  '
               '1.062E+00  3.084E+00  5.803E-04  9.165E-04 -9.884E-06\n',
               '-   1    4   60     1    60    2.0470E+00  9.0630E-04   '
               '2.0461E+00  0.000E+00  0.000E+00  0.000E+00  1.23212E+02  '
               '1.062E+00  3.083E+00  5.802E-04  9.165E-04 -1.022E-05\n',
               '-   1    4   61     1    61    2.0461E+00  9.0604E-04   '
               '2.0452E+00  0.000E+00  0.000E+00  0.000E+00  1.22912E+02  '
               '1.062E+00  3.083E+00  5.802E-04  9.175E-04 -1.146E-05\n',
               '-   1    4   62     1    62    2.0452E+00  9.0578E-04   '
               '2.0443E+00  0.000E+00  0.000E+00  0.000E+00  1.22612E+02  '
               '1.062E+00  3.083E+00  5.801E-04  9.186E-04 -1.277E-05\n',
               '-   1    4   63     1    63    2.0443E+00  9.0551E-04   '
               '2.0434E+00  0.000E+00  0.000E+00  0.000E+00  1.22311E+02  '
               '1.061E+00  3.083E+00  5.800E-04  9.185E-04 -1.302E-05\n',
               '-   1    4   64     1    64    2.0434E+00  9.0525E-04   '
               '2.0425E+00  0.000E+00  0.000E+00  0.000E+00  1.22011E+02  '
               '1.061E+00  3.082E+00  5.799E-04  9.181E-04 -1.289E-05\n',
               '-   1    4   65     1    65    2.0425E+00  9.0499E-04   '
               '2.0416E+00  0.000E+00  0.000E+00  0.000E+00  1.21711E+02  '
               '1.061E+00  3.082E+00  5.799E-04  9.178E-04 -1.277E-05\n',
               '-   1    4   66     1    66    2.0416E+00  9.0473E-04   '
               '2.0406E+00  0.000E+00  0.000E+00  0.000E+00  1.21411E+02  '
               '1.061E+00  3.082E+00  5.798E-04  9.174E-04 -1.265E-05\n',
               '-   1    4   67     1    67    2.0406E+00  9.0446E-04   '
               '2.0397E+00  0.000E+00  0.000E+00  0.000E+00  1.21111E+02  '
               '1.061E+00  3.081E+00  5.797E-04  9.170E-04 -1.253E-05\n',
               '-   1    4   68     1    68    2.0397E+00  9.0420E-04   '
               '2.0388E+00  0.000E+00  0.000E+00  0.000E+00  1.20810E+02  '
               '1.060E+00  3.081E+00  5.796E-04  9.166E-04 -1.242E-05\n',
               '-   1    4   69     1    69    2.0388E+00  9.0394E-04   '
               '2.0379E+00  0.000E+00  0.000E+00  0.000E+00  1.20510E+02  '
               '1.060E+00  3.081E+00  5.795E-04  9.162E-04 -1.231E-05\n',
               '-   1    4   70     1    70    2.0379E+00  9.0367E-04   '
               '2.0370E+00  0.000E+00  0.000E+00  0.000E+00  1.20210E+02  '
               '1.060E+00  3.080E+00  5.795E-04  9.159E-04 -1.221E-05\n',
               '-   1    4   71     1    71    2.0370E+00  9.0341E-04   '
               '2.0361E+00  0.000E+00  0.000E+00  0.000E+00  1.19910E+02  '
               '1.060E+00  3.080E+00  5.794E-04  9.155E-04 -1.211E-05\n',
               '-   1    4   72     1    72    2.0361E+00  9.0315E-04   '
               '2.0352E+00  0.000E+00  0.000E+00  0.000E+00  1.19609E+02  '
               '1.059E+00  3.080E+00  5.793E-04  9.152E-04 -1.201E-05\n',
               '-   1    4   73     1    73    2.0352E+00  9.0288E-04   '
               '2.0343E+00  0.000E+00  0.000E+00  0.000E+00  1.19309E+02  '
               '1.059E+00  3.080E+00  5.792E-04  9.152E-04 -1.236E-05\n',
               '-   1    4   74     1    74    2.0343E+00  9.0262E-04   '
               '2.0334E+00  0.000E+00  0.000E+00  0.000E+00  1.19009E+02  '
               '1.059E+00  3.079E+00  5.791E-04  9.171E-04 -1.453E-05\n',
               '-   1    4   75     1    75    2.0334E+00  9.0236E-04   '
               '2.0325E+00  0.000E+00  0.000E+00  0.000E+00  1.18709E+02  '
               '1.059E+00  3.079E+00  5.791E-04  9.179E-04 -1.556E-05\n',
               '-   1    4   76     1    76    2.0325E+00  9.0210E-04   '
               '2.0316E+00  0.000E+00  0.000E+00  0.000E+00  1.18408E+02  '
               '1.058E+00  3.079E+00  5.790E-04  9.176E-04 -1.549E-05\n',
               '-   1    4   77     1    77    2.0316E+00  9.0183E-04   '
               '2.0307E+00  0.000E+00  0.000E+00  0.000E+00  1.18108E+02  '
               '1.058E+00  3.078E+00  5.789E-04  9.173E-04 -1.542E-05\n',
               '-   1    4   78     1    78    2.0307E+00  9.0157E-04   '
               '2.0298E+00  0.000E+00  0.000E+00  0.000E+00  1.17808E+02  '
               '1.058E+00  3.078E+00  5.788E-04  9.169E-04 -1.536E-05\n',
               '-   1    4   79     1    79    2.0298E+00  9.0131E-04   '
               '2.0289E+00  0.000E+00  0.000E+00  0.000E+00  1.17508E+02  '
               '1.058E+00  3.078E+00  5.788E-04  9.166E-04 -1.530E-05\n',
               '-   1    4   80     1    80    2.0289E+00  9.0105E-04   '
               '2.0280E+00  0.000E+00  0.000E+00  0.000E+00  1.17207E+02  '
               '1.057E+00  3.078E+00  5.787E-04  9.261E-04 -2.507E-05\n',
               '-   1    4   81     1    81    2.0280E+00  9.0079E-04   '
               '2.0271E+00  0.000E+00  0.000E+00  0.000E+00  1.16907E+02  '
               '1.057E+00  3.077E+00  5.786E-04  9.279E-04 -2.712E-05\n',
               '-   1    4   82     1    82    2.0271E+00  9.0052E-04   '
               '2.0262E+00  0.000E+00  0.000E+00  0.000E+00  1.16607E+02  '
               '1.057E+00  3.077E+00  5.785E-04  9.301E-04 -2.957E-05\n',
               '-   1    4   83     1    83    2.0262E+00  9.0026E-04   '
               '2.0253E+00  0.000E+00  0.000E+00  0.000E+00  1.16307E+02  '
               '1.057E+00  3.077E+00  5.784E-04  9.314E-04 -3.114E-05\n',
               '-   1    4   84     1    84    2.0253E+00  9.0000E-04   '
               '2.0244E+00  0.000E+00  0.000E+00  0.000E+00  1.16006E+02  '
               '1.056E+00  3.076E+00  5.784E-04  9.312E-04 -3.123E-05\n',
               '-   1    4   85     1    85    2.0244E+00  8.9974E-04   '
               '2.0235E+00  0.000E+00  0.000E+00  0.000E+00  1.15706E+02  '
               '1.056E+00  3.076E+00  5.783E-04  9.311E-04 -3.136E-05\n',
               '-   1    4   86     1    86    2.0235E+00  8.9948E-04   '
               '2.0226E+00  0.000E+00  0.000E+00  0.000E+00  1.15406E+02  '
               '1.056E+00  3.076E+00  5.782E-04  9.310E-04 -3.153E-05\n',
               '-   1    4   87     1    87    2.0226E+00  8.9921E-04   '
               '2.0217E+00  0.000E+00  0.000E+00  0.000E+00  1.15106E+02  '
               '1.056E+00  3.076E+00  5.781E-04  9.310E-04 -3.176E-05\n',
               '-   1    4   88     1    88    2.0217E+00  8.9895E-04   '
               '2.0208E+00  0.000E+00  0.000E+00  0.000E+00  1.14805E+02  '
               '1.055E+00  3.075E+00  5.780E-04  9.330E-04 -3.409E-05\n',
               '-   1    4   89     1    89    2.0208E+00  8.9869E-04   '
               '2.0199E+00  0.000E+00  0.000E+00  0.000E+00  1.14505E+02  '
               '1.055E+00  3.075E+00  5.780E-04  9.351E-04 -3.638E-05\n',
               '-   1    4   90     1    90    2.0199E+00  8.9843E-04   '
               '2.0190E+00  0.000E+00  0.000E+00  0.000E+00  1.14205E+02  '
               '1.055E+00  3.075E+00  5.779E-04  9.353E-04 -3.682E-05\n',
               '-   1    4   91     1    91    2.0190E+00  8.9817E-04   '
               '2.0181E+00  0.000E+00  0.000E+00  0.000E+00  1.13905E+02  '
               '1.055E+00  3.074E+00  5.778E-04  9.355E-04 -3.734E-05\n',
               '-   1    4   92     1    92    2.0181E+00  8.9791E-04   '
               '2.0172E+00  0.000E+00  0.000E+00  0.000E+00  1.13604E+02  '
               '1.054E+00  3.074E+00  5.777E-04  9.358E-04 -3.794E-05\n',
               '-   1    4   93     1    93    2.0172E+00  8.9764E-04   '
               '2.0163E+00  0.000E+00  0.000E+00  0.000E+00  1.13304E+02  '
               '1.054E+00  3.074E+00  5.776E-04  9.386E-04 -4.098E-05\n',
               '-   1    4   94     1    94    2.0163E+00  8.9738E-04   '
               '2.0154E+00  0.000E+00  0.000E+00  0.000E+00  1.13004E+02  '
               '1.054E+00  3.074E+00  5.776E-04  9.406E-04 -4.321E-05\n',
               '-   1    4   95     1    95    2.0154E+00  8.9712E-04   '
               '2.0145E+00  0.000E+00  0.000E+00  0.000E+00  1.12704E+02  '
               '1.054E+00  3.073E+00  5.775E-04  9.411E-04 -4.396E-05\n',
               '-   1    4   96     1    96    2.0145E+00  8.9686E-04   '
               '2.0136E+00  0.000E+00  0.000E+00  0.000E+00  1.12404E+02  '
               '1.054E+00  3.073E+00  5.774E-04  9.450E-04 -4.815E-05\n',
               '-   1    4   97     1    97    2.0136E+00  8.9660E-04   '
               '2.0127E+00  0.000E+00  0.000E+00  0.000E+00  1.12103E+02  '
               '1.053E+00  3.073E+00  5.773E-04  9.479E-04 -5.125E-05\n',
               '-   1    4   98     1    98    2.0127E+00  8.9634E-04   '
               '2.0118E+00  0.000E+00  0.000E+00  0.000E+00  1.11803E+02  '
               '1.053E+00  3.072E+00  5.773E-04  9.495E-04 -5.317E-05\n',
               '-   1    4   99     1    99    2.0118E+00  8.9608E-04   '
               '2.0109E+00  0.000E+00  0.000E+00  0.000E+00  1.11503E+02  '
               '1.053E+00  3.072E+00  5.772E-04  9.497E-04 -5.364E-05\n',
               '-   1    4  100     1   100    2.0109E+00  8.9582E-04   '
               '2.0100E+00  0.000E+00  0.000E+00  0.000E+00  1.11203E+02  '
               '1.053E+00  3.072E+00  5.771E-04  9.514E-04 -5.558E-05\n',
               '-\n',
               '-\n',
               '-\n',
               '-1\n',
               '-  VOLUMETRIC BUDGET FOR UNSATURATED ZONE BENEATH STREAMS AT '
               'END OF TIME STEP    30 STRESS PERIOD  47\n',
               '-  '
               '------------------------------------------------------------------------------------------------\n',
               '-\n',
               '-    CUMULATIVE VOLUMES             L**3    RATES FOR THIS '
               'TIME STEP         L**3/T\n',
               '-    ------------------                     '
               '------------------------\n',
               '-\n',
               '-\n',
               '-          STREAM LOSS =     35202296.0000            STREAM '
               'LOSS =        9.0884E-02\n',
               '-    CHANGE IN STORAGE =       369782.3125      CHANGE IN '
               'STORAGE =       -2.0030E-03\n',
               '-       RECHARGE TO GW =     34836804.0000         RECHARGE TO '
               'GW =        9.2887E-02\n',
               '-\n',
               '-             TOTAL IN =     35202296.0000               TOTAL '
               'IN =        9.2887E-02\n',
               '-\n',
               '-            TOTAL OUT =     35206588.0000              TOTAL '
               'OUT =        9.2887E-02\n',
               '-\n',
               '-             IN - OUT =        -4292.0000               IN - '
               'OUT =       -7.4506E-09\n',
               '-\n',
               '-  PERCENT DISCREPANCY =           -0.00      PERCENT '
               'DISCREPANCY =            -0.00\n',
               '-\n',
               '-\n',
               '-\n',
               '-1\n',
               '-  VOLUMETRIC BUDGET FOR ENTIRE MODEL AT END OF TIME STEP   '
               '30, STRESS PERIOD  47\n',
               '-  '
               '------------------------------------------------------------------------------\n',
               '-\n',
               '-     CUMULATIVE VOLUMES      L**3       RATES FOR THIS TIME '
               'STEP      L**3/T\n',
               '-     ------------------                 '
               '------------------------\n',
               '-\n',
               '-           IN:                                      IN:\n',
               '-           ---                                      ---\n',
               '-             STORAGE =    17391554.0000               STORAGE '
               '=       9.9304E-02\n',
               '-       CONSTANT HEAD =           0.0000         CONSTANT HEAD '
               '=           0.0000\n',
               '-     HEAD DEP BOUNDS =           0.0000       HEAD DEP BOUNDS '
               '=           0.0000\n',
               '-      STREAM LEAKAGE =    34836716.0000        STREAM LEAKAGE '
               '=       9.2887E-02\n',
               '-\n',
               '-            TOTAL IN =    52228272.0000              TOTAL IN '
               '=           0.1922\n',
               '-\n',
               '-          OUT:                                     OUT:\n',
               '-          ----                                     ----\n',
               '-             STORAGE =    17096440.0000               STORAGE '
               '=           0.0000\n',
               '-       CONSTANT HEAD =           0.0000         CONSTANT HEAD '
               '=           0.0000\n',
               '-     HEAD DEP BOUNDS =    35131224.0000       HEAD DEP BOUNDS '
               '=           0.1921\n',
               '-      STREAM LEAKAGE =           0.0000        STREAM LEAKAGE '
               '=           0.0000\n',
               '-\n',
               '-           TOTAL OUT =    52227664.0000             TOTAL OUT '
               '=           0.1921\n',
               '-\n',
               '-            IN - OUT =         608.0000              IN - OUT '
               '=       1.2836E-04\n',
               '-\n',
               '- PERCENT DISCREPANCY =           0.00     PERCENT DISCREPANCY '
               '=           0.07\n',
               '-\n',
               '-\n',
               '-\n',
               '-\n',
               '-\n',
               '-\n',
               '-         TIME SUMMARY AT END OF TIME STEP   30 IN STRESS '
               'PERIOD   47\n',
               '-                    SECONDS     MINUTES      HOURS       '
               'DAYS        YEARS\n',
               '-                    '
               '-----------------------------------------------------------\n',
               '-   TIME STEP LENGTH 2.49961E+05  4166.0      69.434      '
               '2.8931     7.92080E-03\n',
               '- STRESS PERIOD TIME 2.59200E+06  43200.      720.00      '
               '30.000     8.21355E-02\n',
               '-         TOTAL TIME 1.21824E+08 2.03040E+06  33840.      '
               '1410.0      3.8604    \n',
               '-1\n',
               '-1\n',
               '-                            STRESS PERIOD NO.   48, LENGTH '
               '=   2592000.    \n',
               '-                            '
               '-----------------------------------------------\n',
               '-\n',
               '-                              NUMBER OF TIME STEPS =    30\n',
               '-\n',
               '-                               MULTIPLIER FOR DELT =     '
               '1.100\n',
               '-\n',
               '-                            INITIAL TIME STEP SIZE =   '
               '15757.40    \n',
               '-\n',
               '- REUSING NON-PARAMETER GHB CELLS FROM LAST STRESS PERIOD\n',
               '-\n',
               '-      7 GHB CELLS\n',
               '- \n',
               '- SOLVING FOR HEAD \n',
               '-\n',
               '- NO OUTPUT CONTROL FOR STRESS PERIOD   48   TIME STEP    1\n',
               '- \n',
               '- SOLVING FOR HEAD \n',
               '-\n',
               '- NO OUTPUT CONTROL FOR STRESS PERIOD   48   TIME STEP    2\n',
               '- \n',
               '- SOLVING FOR HEAD \n',
               '-\n',
               '- NO OUTPUT CONTROL FOR STRESS PERIOD   48   TIME STEP    3\n',
               '- \n',
               '- SOLVING FOR HEAD \n',
               '-\n',
               '- NO OUTPUT CONTROL FOR STRESS PERIOD   48   TIME STEP    4\n',
               '- \n',
               '- SOLVING FOR HEAD \n',
               '-\n',
               '- NO OUTPUT CONTROL FOR STRESS PERIOD   48   TIME STEP    5\n',
               '- \n',
               '- SOLVING FOR HEAD \n',
               '-\n',
               '- NO OUTPUT CONTROL FOR STRESS PERIOD   48   TIME STEP    6\n',
               '- \n',
               '- SOLVING FOR HEAD \n',
               '-\n',
               '- NO OUTPUT CONTROL FOR STRESS PERIOD   48   TIME STEP    7\n',
               '- \n',
               '- SOLVING FOR HEAD \n',
               '-\n',
               '- NO OUTPUT CONTROL FOR STRESS PERIOD   48   TIME STEP    8\n',
               '- \n',
               '- SOLVING FOR HEAD \n',
               '-\n',
               '- NO OUTPUT CONTROL FOR STRESS PERIOD   48   TIME STEP    9\n',
               '- \n',
               '- SOLVING FOR HEAD \n',
               '-\n',
               '- NO OUTPUT CONTROL FOR STRESS PERIOD   48   TIME STEP   10\n',
               '- \n',
               '- SOLVING FOR HEAD \n',
               '-\n',
               '- NO OUTPUT CONTROL FOR STRESS PERIOD   48   TIME STEP   11\n',
               '- \n',
               '- SOLVING FOR HEAD \n',
               '-\n',
               '- NO OUTPUT CONTROL FOR STRESS PERIOD   48   TIME STEP   12\n',
               '- \n',
               '- SOLVING FOR HEAD \n',
               '-\n',
               '- NO OUTPUT CONTROL FOR STRESS PERIOD   48   TIME STEP   13\n',
               '- \n',
               '- SOLVING FOR HEAD \n',
               '-\n',
               '- NO OUTPUT CONTROL FOR STRESS PERIOD   48   TIME STEP   14\n',
               '- \n',
               '- SOLVING FOR HEAD \n',
               '-\n',
               '- NO OUTPUT CONTROL FOR STRESS PERIOD   48   TIME STEP   15\n',
               '- \n',
               '- SOLVING FOR HEAD \n',
               '-\n',
               '- NO OUTPUT CONTROL FOR STRESS PERIOD   48   TIME STEP   16\n',
               '- \n',
               '- SOLVING FOR HEAD \n',
               '-\n',
               '- NO OUTPUT CONTROL FOR STRESS PERIOD   48   TIME STEP   17\n',
               '- \n',
               '- SOLVING FOR HEAD \n',
               '-\n',
               '- NO OUTPUT CONTROL FOR STRESS PERIOD   48   TIME STEP   18\n',
               '- \n',
               '- SOLVING FOR HEAD \n',
               '-\n',
               '- NO OUTPUT CONTROL FOR STRESS PERIOD   48   TIME STEP   19\n',
               '- \n',
               '- SOLVING FOR HEAD \n',
               '-\n',
               '- NO OUTPUT CONTROL FOR STRESS PERIOD   48   TIME STEP   20\n',
               '- \n',
               '- SOLVING FOR HEAD \n',
               '-\n',
               '- NO OUTPUT CONTROL FOR STRESS PERIOD   48   TIME STEP   21\n',
               '- \n',
               '- SOLVING FOR HEAD \n',
               '-\n',
               '- NO OUTPUT CONTROL FOR STRESS PERIOD   48   TIME STEP   22\n',
               '- \n',
               '- SOLVING FOR HEAD \n',
               '-\n',
               '- NO OUTPUT CONTROL FOR STRESS PERIOD   48   TIME STEP   23\n',
               '- \n',
               '- SOLVING FOR HEAD \n',
               '-\n',
               '- NO OUTPUT CONTROL FOR STRESS PERIOD   48   TIME STEP   24\n',
               '- \n',
               '- SOLVING FOR HEAD \n',
               '-\n',
               '- NO OUTPUT CONTROL FOR STRESS PERIOD   48   TIME STEP   25\n',
               '- \n',
               '- SOLVING FOR HEAD \n',
               '-\n',
               '- NO OUTPUT CONTROL FOR STRESS PERIOD   48   TIME STEP   26\n',
               '- \n',
               '- SOLVING FOR HEAD \n',
               '-\n',
               '- NO OUTPUT CONTROL FOR STRESS PERIOD   48   TIME STEP   27\n',
               '- \n',
               '- SOLVING FOR HEAD \n',
               '-\n',
               '- NO OUTPUT CONTROL FOR STRESS PERIOD   48   TIME STEP   28\n',
               '- \n',
               '- SOLVING FOR HEAD \n',
               '-\n',
               '- NO OUTPUT CONTROL FOR STRESS PERIOD   48   TIME STEP   29\n',
               '- \n',
               '- SOLVING FOR HEAD \n',
               '-\n',
               '- NO OUTPUT CONTROL FOR STRESS PERIOD   48   TIME STEP   30\n',
               '-\n',
               '-\n',
               '-\n',
               '- STREAM LISTING     PERIOD     48   STEP       30\n',
               '-\n',
               '- LAYER ROW COL. STREAM  RCH.   FLOW INTO    STREAM     FLOW '
               'OUT OF   OVRLND.    DIRECT     STREAM      STREAM      '
               'STREAM     STREAM  STREAMBED   FLOW TO   CHNG. UNSAT. \n',
               '-                SEG.NO.  NO.   STRM. RCH.    LOSS       STRM. '
               'RCH.   RUNOFF     PRECIP       ET         HEAD        '
               'DEPTH      WIDTH  CONDCTNC.   WAT. TAB.\n',
               '-\n',
               '-   1    4    1     1     1    4.1980E+00  1.5037E-03   '
               '4.1965E+00  0.000E+00  0.000E+00  0.000E+00  1.41391E+02  '
               '1.541E+00  3.656E+00  7.364E-04  1.527E-03 -2.374E-05\n',
               '-   1    4    2     1     2    4.1965E+00  1.5033E-03   '
               '4.1950E+00  0.000E+00  0.000E+00  0.000E+00  1.41091E+02  '
               '1.541E+00  3.656E+00  7.363E-04  1.527E-03 -2.367E-05\n',
               '-   1    4    3     1     3    4.1950E+00  1.5029E-03   '
               '4.1935E+00  0.000E+00  0.000E+00  0.000E+00  1.40790E+02  '
               '1.540E+00  3.655E+00  7.363E-04  1.526E-03 -2.358E-05\n',
               '-   1    4    4     1     4    4.1935E+00  1.5025E-03   '
               '4.1919E+00  0.000E+00  0.000E+00  0.000E+00  1.40490E+02  '
               '1.540E+00  3.655E+00  7.362E-04  1.525E-03 -2.237E-05\n',
               '-   1    4    5     1     5    4.1919E+00  1.5021E-03   '
               '4.1904E+00  0.000E+00  0.000E+00  0.000E+00  1.40190E+02  '
               '1.540E+00  3.655E+00  7.361E-04  1.523E-03 -2.071E-05\n',
               '-   1    4    6     1     6    4.1904E+00  1.5017E-03   '
               '4.1889E+00  0.000E+00  0.000E+00  0.000E+00  1.39889E+02  '
               '1.539E+00  3.654E+00  7.360E-04  1.521E-03 -1.915E-05\n',
               '-   1    4    7     1     7    4.1889E+00  1.5013E-03   '
               '4.1874E+00  0.000E+00  0.000E+00  0.000E+00  1.39589E+02  '
               '1.539E+00  3.654E+00  7.359E-04  1.520E-03 -1.906E-05\n',
               '-   1    4    8     1     8    4.1874E+00  1.5009E-03   '
               '4.1859E+00  0.000E+00  0.000E+00  0.000E+00  1.39289E+02  '
               '1.539E+00  3.654E+00  7.358E-04  1.520E-03 -1.897E-05\n',
               '-   1    4    9     1     9    4.1859E+00  1.5005E-03   '
               '4.1844E+00  0.000E+00  0.000E+00  0.000E+00  1.38989E+02  '
               '1.539E+00  3.653E+00  7.357E-04  1.519E-03 -1.887E-05\n',
               '-   1    4   10     1    10    4.1844E+00  1.5001E-03   '
               '4.1829E+00  0.000E+00  0.000E+00  0.000E+00  1.38688E+02  '
               '1.538E+00  3.653E+00  7.356E-04  1.519E-03 -1.876E-05\n',
               '-   1    4   11     1    11    4.1829E+00  1.4997E-03   '
               '4.1814E+00  0.000E+00  0.000E+00  0.000E+00  1.38388E+02  '
               '1.538E+00  3.653E+00  7.355E-04  1.518E-03 -1.865E-05\n',
               '-   1    4   12     1    12    4.1814E+00  1.4993E-03   '
               '4.1799E+00  0.000E+00  0.000E+00  0.000E+00  1.38088E+02  '
               '1.538E+00  3.652E+00  7.354E-04  1.518E-03 -1.853E-05\n',
               '-   1    4   13     1    13    4.1799E+00  1.4989E-03   '
               '4.1784E+00  0.000E+00  0.000E+00  0.000E+00  1.37787E+02  '
               '1.537E+00  3.652E+00  7.353E-04  1.517E-03 -1.841E-05\n',
               '-   1    4   14     1    14    4.1784E+00  1.4985E-03   '
               '4.1769E+00  0.000E+00  0.000E+00  0.000E+00  1.37487E+02  '
               '1.537E+00  3.652E+00  7.352E-04  1.517E-03 -1.829E-05\n',
               '-   1    4   15     1    15    4.1769E+00  1.4981E-03   '
               '4.1754E+00  0.000E+00  0.000E+00  0.000E+00  1.37187E+02  '
               '1.537E+00  3.651E+00  7.351E-04  1.516E-03 -1.816E-05\n',
               '-   1    4   16     1    16    4.1754E+00  1.4977E-03   '
               '4.1739E+00  0.000E+00  0.000E+00  0.000E+00  1.36887E+02  '
               '1.537E+00  3.651E+00  7.350E-04  1.516E-03 -1.802E-05\n',
               '-   1    4   17     1    17    4.1739E+00  1.4973E-03   '
               '4.1725E+00  0.000E+00  0.000E+00  0.000E+00  1.36586E+02  '
               '1.536E+00  3.651E+00  7.349E-04  1.515E-03 -1.788E-05\n',
               '-   1    4   18     1    18    4.1725E+00  1.4969E-03   '
               '4.1710E+00  0.000E+00  0.000E+00  0.000E+00  1.36286E+02  '
               '1.536E+00  3.650E+00  7.349E-04  1.515E-03 -1.774E-05\n',
               '-   1    4   19     1    19    4.1710E+00  1.4965E-03   '
               '4.1695E+00  0.000E+00  0.000E+00  0.000E+00  1.35986E+02  '
               '1.536E+00  3.650E+00  7.348E-04  1.514E-03 -1.759E-05\n',
               '-   1    4   20     1    20    4.1695E+00  1.4961E-03   '
               '4.1680E+00  0.000E+00  0.000E+00  0.000E+00  1.35685E+02  '
               '1.535E+00  3.650E+00  7.347E-04  1.514E-03 -1.743E-05\n',
               '-   1    4   21     1    21    4.1680E+00  1.4957E-03   '
               '4.1665E+00  0.000E+00  0.000E+00  0.000E+00  1.35385E+02  '
               '1.535E+00  3.649E+00  7.346E-04  1.513E-03 -1.728E-05\n',
               '-   1    4   22     1    22    4.1665E+00  1.4953E-03   '
               '4.1650E+00  0.000E+00  0.000E+00  0.000E+00  1.35085E+02  '
               '1.535E+00  3.649E+00  7.345E-04  1.512E-03 -1.712E-05\n',
               '-   1    4   23     1    23    4.1650E+00  1.4949E-03   '
               '4.1635E+00  0.000E+00  0.000E+00  0.000E+00  1.34785E+02  '
               '1.535E+00  3.648E+00  7.344E-04  1.512E-03 -1.695E-05\n',
               '-   1    4   24     1    24    4.1635E+00  1.4945E-03   '
               '4.1620E+00  0.000E+00  0.000E+00  0.000E+00  1.34484E+02  '
               '1.534E+00  3.648E+00  7.343E-04  1.511E-03 -1.679E-05\n',
               '-   1    4   25     1    25    4.1620E+00  1.4941E-03   '
               '4.1605E+00  0.000E+00  0.000E+00  0.000E+00  1.34184E+02  '
               '1.534E+00  3.648E+00  7.342E-04  1.511E-03 -1.661E-05\n',
               '-   1    4   26     1    26    4.1605E+00  1.4937E-03   '
               '4.1590E+00  0.000E+00  0.000E+00  0.000E+00  1.33884E+02  '
               '1.534E+00  3.647E+00  7.341E-04  1.510E-03 -1.644E-05\n',
               '-   1    4   27     1    27    4.1590E+00  1.4933E-03   '
               '4.1575E+00  0.000E+00  0.000E+00  0.000E+00  1.33583E+02  '
               '1.533E+00  3.647E+00  7.340E-04  1.510E-03 -1.627E-05\n',
               '-   1    4   28     1    28    4.1575E+00  1.4929E-03   '
               '4.1560E+00  0.000E+00  0.000E+00  0.000E+00  1.33283E+02  '
               '1.533E+00  3.647E+00  7.339E-04  1.509E-03 -1.609E-05\n',
               '-   1    4   29     1    29    4.1560E+00  1.4925E-03   '
               '4.1545E+00  0.000E+00  0.000E+00  0.000E+00  1.32983E+02  '
               '1.533E+00  3.646E+00  7.338E-04  1.508E-03 -1.590E-05\n',
               '-   1    4   30     1    30    4.1545E+00  1.4921E-03   '
               '4.1530E+00  0.000E+00  0.000E+00  0.000E+00  1.32683E+02  '
               '1.533E+00  3.646E+00  7.337E-04  1.508E-03 -1.572E-05\n',
               '-   1    4   31     1    31    4.1530E+00  1.4917E-03   '
               '4.1515E+00  0.000E+00  0.000E+00  0.000E+00  1.32382E+02  '
               '1.532E+00  3.646E+00  7.336E-04  1.507E-03 -1.553E-05\n',
               '-   1    4   32     1    32    4.1515E+00  1.4913E-03   '
               '4.1500E+00  0.000E+00  0.000E+00  0.000E+00  1.32082E+02  '
               '1.532E+00  3.645E+00  7.335E-04  1.507E-03 -1.535E-05\n',
               '-   1    4   33     1    33    4.1500E+00  1.4909E-03   '
               '4.1486E+00  0.000E+00  0.000E+00  0.000E+00  1.31782E+02  '
               '1.532E+00  3.645E+00  7.335E-04  1.506E-03 -1.516E-05\n',
               '-   1    4   34     1    34    4.1486E+00  1.4905E-03   '
               '4.1471E+00  0.000E+00  0.000E+00  0.000E+00  1.31481E+02  '
               '1.531E+00  3.645E+00  7.334E-04  1.505E-03 -1.497E-05\n',
               '-   1    4   35     1    35    4.1471E+00  1.4901E-03   '
               '4.1456E+00  0.000E+00  0.000E+00  0.000E+00  1.31181E+02  '
               '1.531E+00  3.644E+00  7.333E-04  1.505E-03 -1.478E-05\n',
               '-   1    4   36     1    36    4.1456E+00  1.4897E-03   '
               '4.1441E+00  0.000E+00  0.000E+00  0.000E+00  1.30881E+02  '
               '1.531E+00  3.644E+00  7.332E-04  1.504E-03 -1.460E-05\n',
               '-   1    4   37     1    37    4.1441E+00  1.4893E-03   '
               '4.1426E+00  0.000E+00  0.000E+00  0.000E+00  1.30581E+02  '
               '1.531E+00  3.644E+00  7.331E-04  1.504E-03 -1.441E-05\n',
               '-   1    4   38     1    38    4.1426E+00  1.4889E-03   '
               '4.1411E+00  0.000E+00  0.000E+00  0.000E+00  1.30280E+02  '
               '1.530E+00  3.643E+00  7.330E-04  1.503E-03 -1.422E-05\n',
               '-   1    4   39     1    39    4.1411E+00  1.4885E-03   '
               '4.1396E+00  0.000E+00  0.000E+00  0.000E+00  1.29980E+02  '
               '1.530E+00  3.643E+00  7.329E-04  1.503E-03 -1.403E-05\n',
               '-   1    4   40     1    40    4.1396E+00  1.4881E-03   '
               '4.1381E+00  0.000E+00  0.000E+00  0.000E+00  1.29680E+02  '
               '1.530E+00  3.643E+00  7.328E-04  1.502E-03 -1.384E-05\n',
               '-   1    4   41     1    41    4.1381E+00  1.4877E-03   '
               '4.1366E+00  0.000E+00  0.000E+00  0.000E+00  1.29379E+02  '
               '1.529E+00  3.642E+00  7.327E-04  1.501E-03 -1.366E-05\n',
               '-   1    4   42     1    42    4.1366E+00  1.4873E-03   '
               '4.1352E+00  0.000E+00  0.000E+00  0.000E+00  1.29079E+02  '
               '1.529E+00  3.642E+00  7.326E-04  1.501E-03 -1.347E-05\n',
               '-   1    4   43     1    43    4.1352E+00  1.4869E-03   '
               '4.1337E+00  0.000E+00  0.000E+00  0.000E+00  1.28779E+02  '
               '1.529E+00  3.642E+00  7.325E-04  1.500E-03 -1.329E-05\n',
               '-   1    4   44     1    44    4.1337E+00  1.4865E-03   '
               '4.1322E+00  0.000E+00  0.000E+00  0.000E+00  1.28479E+02  '
               '1.529E+00  3.641E+00  7.324E-04  1.500E-03 -1.311E-05\n',
               '-   1    4   45     1    45    4.1322E+00  1.4861E-03   '
               '4.1307E+00  0.000E+00  0.000E+00  0.000E+00  1.28178E+02  '
               '1.528E+00  3.641E+00  7.323E-04  1.499E-03 -1.293E-05\n',
               '-   1    4   46     1    46    4.1307E+00  1.4857E-03   '
               '4.1292E+00  0.000E+00  0.000E+00  0.000E+00  1.27878E+02  '
               '1.528E+00  3.641E+00  7.322E-04  1.498E-03 -1.276E-05\n',
               '-   1    4   47     1    47    4.1292E+00  1.4853E-03   '
               '4.1277E+00  0.000E+00  0.000E+00  0.000E+00  1.27578E+02  '
               '1.528E+00  3.640E+00  7.322E-04  1.498E-03 -1.259E-05\n',
               '-   1    4   48     1    48    4.1277E+00  1.4849E-03   '
               '4.1262E+00  0.000E+00  0.000E+00  0.000E+00  1.27277E+02  '
               '1.527E+00  3.640E+00  7.321E-04  1.497E-03 -1.242E-05\n',
               '-   1    4   49     1    49    4.1262E+00  1.4845E-03   '
               '4.1248E+00  0.000E+00  0.000E+00  0.000E+00  1.26977E+02  '
               '1.527E+00  3.640E+00  7.320E-04  1.497E-03 -1.226E-05\n',
               '-   1    4   50     1    50    4.1248E+00  1.4841E-03   '
               '4.1233E+00  0.000E+00  0.000E+00  0.000E+00  1.26677E+02  '
               '1.527E+00  3.639E+00  7.319E-04  1.496E-03 -1.210E-05\n',
               '-   1    4   51     1    51    4.1233E+00  1.4837E-03   '
               '4.1218E+00  0.000E+00  0.000E+00  0.000E+00  1.26377E+02  '
               '1.527E+00  3.639E+00  7.318E-04  1.496E-03 -1.194E-05\n',
               '-   1    4   52     1    52    4.1218E+00  1.4833E-03   '
               '4.1203E+00  0.000E+00  0.000E+00  0.000E+00  1.26076E+02  '
               '1.526E+00  3.639E+00  7.317E-04  1.495E-03 -1.178E-05\n',
               '-   1    4   53     1    53    4.1203E+00  1.4829E-03   '
               '4.1188E+00  0.000E+00  0.000E+00  0.000E+00  1.25776E+02  '
               '1.526E+00  3.638E+00  7.316E-04  1.495E-03 -1.164E-05\n',
               '-   1    4   54     1    54    4.1188E+00  1.4825E-03   '
               '4.1173E+00  0.000E+00  0.000E+00  0.000E+00  1.25476E+02  '
               '1.526E+00  3.638E+00  7.315E-04  1.494E-03 -1.149E-05\n',
               '-   1    4   55     1    55    4.1173E+00  1.4821E-03   '
               '4.1159E+00  0.000E+00  0.000E+00  0.000E+00  1.25175E+02  '
               '1.525E+00  3.638E+00  7.314E-04  1.493E-03 -1.135E-05\n',
               '-   1    4   56     1    56    4.1159E+00  1.4817E-03   '
               '4.1144E+00  0.000E+00  0.000E+00  0.000E+00  1.24875E+02  '
               '1.525E+00  3.637E+00  7.313E-04  1.493E-03 -1.121E-05\n',
               '-   1    4   57     1    57    4.1144E+00  1.4813E-03   '
               '4.1129E+00  0.000E+00  0.000E+00  0.000E+00  1.24575E+02  '
               '1.525E+00  3.637E+00  7.312E-04  1.492E-03 -1.108E-05\n',
               '-   1    4   58     1    58    4.1129E+00  1.4809E-03   '
               '4.1114E+00  0.000E+00  0.000E+00  0.000E+00  1.24275E+02  '
               '1.525E+00  3.637E+00  7.311E-04  1.492E-03 -1.095E-05\n',
               '-   1    4   59     1    59    4.1114E+00  1.4805E-03   '
               '4.1099E+00  0.000E+00  0.000E+00  0.000E+00  1.23974E+02  '
               '1.524E+00  3.636E+00  7.310E-04  1.491E-03 -1.083E-05\n',
               '-   1    4   60     1    60    4.1099E+00  1.4801E-03   '
               '4.1084E+00  0.000E+00  0.000E+00  0.000E+00  1.23674E+02  '
               '1.524E+00  3.636E+00  7.309E-04  1.491E-03 -1.071E-05\n',
               '-   1    4   61     1    61    4.1084E+00  1.4798E-03   '
               '4.1070E+00  0.000E+00  0.000E+00  0.000E+00  1.23374E+02  '
               '1.524E+00  3.635E+00  7.308E-04  1.490E-03 -1.060E-05\n',
               '-   1    4   62     1    62    4.1070E+00  1.4794E-03   '
               '4.1055E+00  0.000E+00  0.000E+00  0.000E+00  1.23073E+02  '
               '1.523E+00  3.635E+00  7.308E-04  1.490E-03 -1.049E-05\n',
               '-   1    4   63     1    63    4.1055E+00  1.4790E-03   '
               '4.1040E+00  0.000E+00  0.000E+00  0.000E+00  1.22773E+02  '
               '1.523E+00  3.635E+00  7.307E-04  1.489E-03 -1.038E-05\n',
               '-   1    4   64     1    64    4.1040E+00  1.4786E-03   '
               '4.1025E+00  0.000E+00  0.000E+00  0.000E+00  1.22473E+02  '
               '1.523E+00  3.634E+00  7.306E-04  1.489E-03 -1.056E-05\n',
               '-   1    4   65     1    65    4.1025E+00  1.4782E-03   '
               '4.1011E+00  0.000E+00  0.000E+00  0.000E+00  1.22173E+02  '
               '1.523E+00  3.634E+00  7.305E-04  1.490E-03 -1.230E-05\n',
               '-   1    4   66     1    66    4.1011E+00  1.4778E-03   '
               '4.0996E+00  0.000E+00  0.000E+00  0.000E+00  1.21872E+02  '
               '1.522E+00  3.634E+00  7.304E-04  1.491E-03 -1.316E-05\n',
               '-   1    4   67     1    67    4.0996E+00  1.4774E-03   '
               '4.0981E+00  0.000E+00  0.000E+00  0.000E+00  1.21572E+02  '
               '1.522E+00  3.633E+00  7.303E-04  1.490E-03 -1.307E-05\n',
               '-   1    4   68     1    68    4.0981E+00  1.4770E-03   '
               '4.0966E+00  0.000E+00  0.000E+00  0.000E+00  1.21272E+02  '
               '1.522E+00  3.633E+00  7.302E-04  1.490E-03 -1.299E-05\n',
               '-   1    4   69     1    69    4.0966E+00  1.4766E-03   '
               '4.0951E+00  0.000E+00  0.000E+00  0.000E+00  1.20971E+02  '
               '1.521E+00  3.633E+00  7.301E-04  1.489E-03 -1.291E-05\n',
               '-   1    4   70     1    70    4.0951E+00  1.4762E-03   '
               '4.0937E+00  0.000E+00  0.000E+00  0.000E+00  1.20671E+02  '
               '1.521E+00  3.632E+00  7.300E-04  1.489E-03 -1.283E-05\n',
               '-   1    4   71     1    71    4.0937E+00  1.4758E-03   '
               '4.0922E+00  0.000E+00  0.000E+00  0.000E+00  1.20371E+02  '
               '1.521E+00  3.632E+00  7.299E-04  1.489E-03 -1.277E-05\n',
               '-   1    4   72     1    72    4.0922E+00  1.4754E-03   '
               '4.0907E+00  0.000E+00  0.000E+00  0.000E+00  1.20071E+02  '
               '1.521E+00  3.632E+00  7.298E-04  1.488E-03 -1.272E-05\n',
               '-   1    4   73     1    73    4.0907E+00  1.4750E-03   '
               '4.0892E+00  0.000E+00  0.000E+00  0.000E+00  1.19770E+02  '
               '1.520E+00  3.631E+00  7.297E-04  1.488E-03 -1.267E-05\n',
               '-   1    4   74     1    74    4.0892E+00  1.4746E-03   '
               '4.0878E+00  0.000E+00  0.000E+00  0.000E+00  1.19470E+02  '
               '1.520E+00  3.631E+00  7.296E-04  1.487E-03 -1.265E-05\n',
               '-   1    4   75     1    75    4.0878E+00  1.4742E-03   '
               '4.0863E+00  0.000E+00  0.000E+00  0.000E+00  1.19170E+02  '
               '1.520E+00  3.631E+00  7.295E-04  1.487E-03 -1.263E-05\n',
               '-   1    4   76     1    76    4.0863E+00  1.4738E-03   '
               '4.0848E+00  0.000E+00  0.000E+00  0.000E+00  1.18869E+02  '
               '1.519E+00  3.630E+00  7.295E-04  1.486E-03 -1.263E-05\n',
               '-   1    4   77     1    77    4.0848E+00  1.4734E-03   '
               '4.0833E+00  0.000E+00  0.000E+00  0.000E+00  1.18569E+02  '
               '1.519E+00  3.630E+00  7.294E-04  1.486E-03 -1.265E-05\n',
               '-   1    4   78     1    78    4.0833E+00  1.4730E-03   '
               '4.0819E+00  0.000E+00  0.000E+00  0.000E+00  1.18269E+02  '
               '1.519E+00  3.630E+00  7.293E-04  1.487E-03 -1.425E-05\n',
               '-   1    4   79     1    79    4.0819E+00  1.4726E-03   '
               '4.0804E+00  0.000E+00  0.000E+00  0.000E+00  1.17969E+02  '
               '1.519E+00  3.629E+00  7.292E-04  1.489E-03 -1.609E-05\n',
               '-   1    4   80     1    80    4.0804E+00  1.4722E-03   '
               '4.0789E+00  0.000E+00  0.000E+00  0.000E+00  1.17668E+02  '
               '1.518E+00  3.629E+00  7.291E-04  1.488E-03 -1.617E-05\n',
               '-   1    4   81     1    81    4.0789E+00  1.4718E-03   '
               '4.0775E+00  0.000E+00  0.000E+00  0.000E+00  1.17368E+02  '
               '1.518E+00  3.629E+00  7.290E-04  1.488E-03 -1.628E-05\n',
               '-   1    4   82     1    82    4.0775E+00  1.4714E-03   '
               '4.0760E+00  0.000E+00  0.000E+00  0.000E+00  1.17068E+02  '
               '1.518E+00  3.628E+00  7.289E-04  1.488E-03 -1.641E-05\n',
               '-   1    4   83     1    83    4.0760E+00  1.4711E-03   '
               '4.0745E+00  0.000E+00  0.000E+00  0.000E+00  1.16767E+02  '
               '1.517E+00  3.628E+00  7.288E-04  1.488E-03 -1.658E-05\n',
               '-   1    4   84     1    84    4.0745E+00  1.4707E-03   '
               '4.0730E+00  0.000E+00  0.000E+00  0.000E+00  1.16467E+02  '
               '1.517E+00  3.628E+00  7.287E-04  1.487E-03 -1.678E-05\n',
               '-   1    4   85     1    85    4.0730E+00  1.4703E-03   '
               '4.0716E+00  0.000E+00  0.000E+00  0.000E+00  1.16167E+02  '
               '1.517E+00  3.627E+00  7.286E-04  1.487E-03 -1.701E-05\n',
               '-   1    4   86     1    86    4.0716E+00  1.4699E-03   '
               '4.0701E+00  0.000E+00  0.000E+00  0.000E+00  1.15867E+02  '
               '1.517E+00  3.627E+00  7.285E-04  1.487E-03 -1.728E-05\n',
               '-   1    4   87     1    87    4.0701E+00  1.4695E-03   '
               '4.0686E+00  0.000E+00  0.000E+00  0.000E+00  1.15566E+02  '
               '1.516E+00  3.627E+00  7.284E-04  1.489E-03 -1.948E-05\n',
               '-   1    4   88     1    88    4.0686E+00  1.4691E-03   '
               '4.0672E+00  0.000E+00  0.000E+00  0.000E+00  1.15266E+02  '
               '1.516E+00  3.626E+00  7.283E-04  1.503E-03 -3.354E-05\n',
               '-   1    4   89     1    89    4.0672E+00  1.4687E-03   '
               '4.0657E+00  0.000E+00  0.000E+00  0.000E+00  1.14966E+02  '
               '1.516E+00  3.626E+00  7.282E-04  1.503E-03 -3.392E-05\n',
               '-   1    4   90     1    90    4.0657E+00  1.4683E-03   '
               '4.0642E+00  0.000E+00  0.000E+00  0.000E+00  1.14665E+02  '
               '1.515E+00  3.626E+00  7.282E-04  1.503E-03 -3.431E-05\n',
               '-   1    4   91     1    91    4.0642E+00  1.4679E-03   '
               '4.0628E+00  0.000E+00  0.000E+00  0.000E+00  1.14365E+02  '
               '1.515E+00  3.625E+00  7.281E-04  1.503E-03 -3.471E-05\n',
               '-   1    4   92     1    92    4.0628E+00  1.4675E-03   '
               '4.0613E+00  0.000E+00  0.000E+00  0.000E+00  1.14065E+02  '
               '1.515E+00  3.625E+00  7.280E-04  1.503E-03 -3.510E-05\n',
               '-   1    4   93     1    93    4.0613E+00  1.4671E-03   '
               '4.0598E+00  0.000E+00  0.000E+00  0.000E+00  1.13765E+02  '
               '1.515E+00  3.625E+00  7.279E-04  1.503E-03 -3.545E-05\n',
               '-   1    4   94     1    94    4.0598E+00  1.4667E-03   '
               '4.0584E+00  0.000E+00  0.000E+00  0.000E+00  1.13464E+02  '
               '1.514E+00  3.624E+00  7.278E-04  1.505E-03 -3.836E-05\n',
               '-   1    4   95     1    95    4.0584E+00  1.4663E-03   '
               '4.0569E+00  0.000E+00  0.000E+00  0.000E+00  1.13164E+02  '
               '1.514E+00  3.624E+00  7.277E-04  1.506E-03 -3.971E-05\n',
               '-   1    4   96     1    96    4.0569E+00  1.4659E-03   '
               '4.0554E+00  0.000E+00  0.000E+00  0.000E+00  1.12864E+02  '
               '1.514E+00  3.624E+00  7.276E-04  1.506E-03 -3.985E-05\n',
               '-   1    4   97     1    97    4.0554E+00  1.4655E-03   '
               '4.0540E+00  0.000E+00  0.000E+00  0.000E+00  1.12563E+02  '
               '1.513E+00  3.623E+00  7.275E-04  1.509E-03 -4.343E-05\n',
               '-   1    4   98     1    98    4.0540E+00  1.4651E-03   '
               '4.0525E+00  0.000E+00  0.000E+00  0.000E+00  1.12263E+02  '
               '1.513E+00  3.623E+00  7.274E-04  1.509E-03 -4.337E-05\n',
               '-   1    4   99     1    99    4.0525E+00  1.4648E-03   '
               '4.0510E+00  0.000E+00  0.000E+00  0.000E+00  1.11963E+02  '
               '1.513E+00  3.623E+00  7.273E-04  1.509E-03 -4.375E-05\n',
               '-   1    4  100     1   100    4.0510E+00  1.4644E-03   '
               '4.0496E+00  0.000E+00  0.000E+00  0.000E+00  1.11663E+02  '
               '1.513E+00  3.622E+00  7.272E-04  1.511E-03 -4.672E-05\n',
               '-\n',
               '-\n',
               '-\n',
               '-1\n',
               '-  VOLUMETRIC BUDGET FOR UNSATURATED ZONE BENEATH STREAMS AT '
               'END OF TIME STEP    30 STRESS PERIOD  48\n',
               '-  '
               '------------------------------------------------------------------------------------------------\n',
               '-\n',
               '-    CUMULATIVE VOLUMES             L**3    RATES FOR THIS '
               'TIME STEP         L**3/T\n',
               '-    ------------------                     '
               '------------------------\n',
               '-\n',
               '-\n',
               '-          STREAM LOSS =     35586672.0000            STREAM '
               'LOSS =            0.1484\n',
               '-    CHANGE IN STORAGE =       404617.4688      CHANGE IN '
               'STORAGE =       -1.8198E-03\n',
               '-       RECHARGE TO GW =     35186760.0000         RECHARGE TO '
               'GW =            0.1502\n',
               '-\n',
               '-             TOTAL IN =     35586672.0000               TOTAL '
               'IN =            0.1502\n',
               '-\n',
               '-            TOTAL OUT =     35591376.0000              TOTAL '
               'OUT =            0.1502\n',
               '-\n',
               '-             IN - OUT =        -4704.0000               IN - '
               'OUT =       -1.4901E-08\n',
               '-\n',
               '-  PERCENT DISCREPANCY =           -0.00      PERCENT '
               'DISCREPANCY =            -0.00\n',
               '-\n',
               '-\n',
               '-\n',
               '-1\n',
               '-  VOLUMETRIC BUDGET FOR ENTIRE MODEL AT END OF TIME STEP   '
               '30, STRESS PERIOD  48\n',
               '-  '
               '------------------------------------------------------------------------------\n',
               '-\n',
               '-     CUMULATIVE VOLUMES      L**3       RATES FOR THIS TIME '
               'STEP      L**3/T\n',
               '-     ------------------                 '
               '------------------------\n',
               '-\n',
               '-           IN:                                      IN:\n',
               '-           ---                                      ---\n',
               '-             STORAGE =    17540720.0000               STORAGE '
               '=       4.2595E-02\n',
               '-       CONSTANT HEAD =           0.0000         CONSTANT HEAD '
               '=           0.0000\n',
               '-     HEAD DEP BOUNDS =           0.0000       HEAD DEP BOUNDS '
               '=           0.0000\n',
               '-      STREAM LEAKAGE =    35186528.0000        STREAM LEAKAGE '
               '=           0.1502\n',
               '-\n',
               '-            TOTAL IN =    52727248.0000              TOTAL IN '
               '=           0.1928\n',
               '-\n',
               '-          OUT:                                     OUT:\n',
               '-          ----                                     ----\n',
               '-             STORAGE =    17097026.0000               STORAGE '
               '=       8.7768E-06\n',
               '-       CONSTANT HEAD =           0.0000         CONSTANT HEAD '
               '=           0.0000\n',
               '-     HEAD DEP BOUNDS =    35629612.0000       HEAD DEP BOUNDS '
               '=           0.1927\n',
               '-      STREAM LEAKAGE =           0.0000        STREAM LEAKAGE '
               '=           0.0000\n',
               '-\n',
               '-           TOTAL OUT =    52726640.0000             TOTAL OUT '
               '=           0.1927\n',
               '-\n',
               '-            IN - OUT =         608.0000              IN - OUT '
               '=       1.0701E-04\n',
               '-\n',
               '- PERCENT DISCREPANCY =           0.00     PERCENT DISCREPANCY '
               '=           0.06\n',
               '-\n',
               '-\n',
               '-\n',
               '-\n',
               '-\n',
               '-\n',
               '-         TIME SUMMARY AT END OF TIME STEP   30 IN STRESS '
               'PERIOD   48\n',
               '-                    SECONDS     MINUTES      HOURS       '
               'DAYS        YEARS\n',
               '-                    '
               '-----------------------------------------------------------\n',
               '-   TIME STEP LENGTH 2.49961E+05  4166.0      69.434      '
               '2.8931     7.92080E-03\n',
               '- STRESS PERIOD TIME 2.59200E+06  43200.      720.00      '
               '30.000     8.21355E-02\n',
               '-         TOTAL TIME 1.24416E+08 2.07360E+06  34560.      '
               '1440.0      3.9425    \n',
               '-1\n',
               '-1\n',
               '-                            STRESS PERIOD NO.   49, LENGTH '
               '=   2592000.    \n',
               '-                            '
               '-----------------------------------------------\n',
               '-\n',
               '-                              NUMBER OF TIME STEPS =    30\n',
               '-\n',
               '-                               MULTIPLIER FOR DELT =     '
               '1.100\n',
               '-\n',
               '-                            INITIAL TIME STEP SIZE =   '
               '15757.40    \n',
               '-\n',
               '- REUSING NON-PARAMETER GHB CELLS FROM LAST STRESS PERIOD\n',
               '-\n',
               '-      7 GHB CELLS\n',
               '- \n',
               '- SOLVING FOR HEAD \n',
               '-\n',
               '- NO OUTPUT CONTROL FOR STRESS PERIOD   49   TIME STEP    1\n',
               '- \n',
               '- SOLVING FOR HEAD \n',
               '-\n',
               '- NO OUTPUT CONTROL FOR STRESS PERIOD   49   TIME STEP    2\n',
               '- \n',
               '- SOLVING FOR HEAD \n',
               '-\n',
               '- NO OUTPUT CONTROL FOR STRESS PERIOD   49   TIME STEP    3\n',
               '- \n',
               '- SOLVING FOR HEAD \n',
               '-\n',
               '- NO OUTPUT CONTROL FOR STRESS PERIOD   49   TIME STEP    4\n',
               '- \n',
               '- SOLVING FOR HEAD \n',
               '-\n',
               '- NO OUTPUT CONTROL FOR STRESS PERIOD   49   TIME STEP    5\n',
               '- \n',
               '- SOLVING FOR HEAD \n',
               '-\n',
               '- NO OUTPUT CONTROL FOR STRESS PERIOD   49   TIME STEP    6\n',
               '- \n',
               '- SOLVING FOR HEAD \n',
               '-\n',
               '- NO OUTPUT CONTROL FOR STRESS PERIOD   49   TIME STEP    7\n',
               '- \n',
               '- SOLVING FOR HEAD \n',
               '-\n',
               '- NO OUTPUT CONTROL FOR STRESS PERIOD   49   TIME STEP    8\n',
               '- \n',
               '- SOLVING FOR HEAD \n',
               '-\n',
               '- NO OUTPUT CONTROL FOR STRESS PERIOD   49   TIME STEP    9\n',
               '- \n',
               '- SOLVING FOR HEAD \n',
               '-\n',
               '- NO OUTPUT CONTROL FOR STRESS PERIOD   49   TIME STEP   10\n',
               '- \n',
               '- SOLVING FOR HEAD \n',
               '-\n',
               '- NO OUTPUT CONTROL FOR STRESS PERIOD   49   TIME STEP   11\n',
               '- \n',
               '- SOLVING FOR HEAD \n',
               '-\n',
               '- NO OUTPUT CONTROL FOR STRESS PERIOD   49   TIME STEP   12\n',
               '- \n',
               '- SOLVING FOR HEAD \n',
               '-\n',
               '- NO OUTPUT CONTROL FOR STRESS PERIOD   49   TIME STEP   13\n',
               '- \n',
               '- SOLVING FOR HEAD \n',
               '-\n',
               '- NO OUTPUT CONTROL FOR STRESS PERIOD   49   TIME STEP   14\n',
               '- \n',
               '- SOLVING FOR HEAD \n',
               '-\n',
               '- NO OUTPUT CONTROL FOR STRESS PERIOD   49   TIME STEP   15\n',
               '- \n',
               '- SOLVING FOR HEAD \n',
               '-\n',
               '- NO OUTPUT CONTROL FOR STRESS PERIOD   49   TIME STEP   16\n',
               '- \n',
               '- SOLVING FOR HEAD \n',
               '-\n',
               '- NO OUTPUT CONTROL FOR STRESS PERIOD   49   TIME STEP   17\n',
               '- \n',
               '- SOLVING FOR HEAD \n',
               '-\n',
               '- NO OUTPUT CONTROL FOR STRESS PERIOD   49   TIME STEP   18\n',
               '- \n',
               '- SOLVING FOR HEAD \n',
               '-\n',
               '- NO OUTPUT CONTROL FOR STRESS PERIOD   49   TIME STEP   19\n',
               '- \n',
               '- SOLVING FOR HEAD \n',
               '-\n',
               '- NO OUTPUT CONTROL FOR STRESS PERIOD   49   TIME STEP   20\n',
               '- \n',
               '- SOLVING FOR HEAD \n',
               '-\n',
               '- NO OUTPUT CONTROL FOR STRESS PERIOD   49   TIME STEP   21\n',
               '- \n',
               '- SOLVING FOR HEAD \n',
               '-\n',
               '- NO OUTPUT CONTROL FOR STRESS PERIOD   49   TIME STEP   22\n',
               '- \n',
               '- SOLVING FOR HEAD \n',
               '-\n',
               '- NO OUTPUT CONTROL FOR STRESS PERIOD   49   TIME STEP   23\n',
               '- \n',
               '- SOLVING FOR HEAD \n',
               '-\n',
               '- NO OUTPUT CONTROL FOR STRESS PERIOD   49   TIME STEP   24\n',
               '- \n',
               '- SOLVING FOR HEAD \n',
               '-\n',
               '- NO OUTPUT CONTROL FOR STRESS PERIOD   49   TIME STEP   25\n',
               '- \n',
               '- SOLVING FOR HEAD \n',
               '-\n',
               '- NO OUTPUT CONTROL FOR STRESS PERIOD   49   TIME STEP   26\n',
               '- \n',
               '- SOLVING FOR HEAD \n',
               '-\n',
               '- NO OUTPUT CONTROL FOR STRESS PERIOD   49   TIME STEP   27\n',
               '- \n',
               '- SOLVING FOR HEAD \n',
               '-\n',
               '- NO OUTPUT CONTROL FOR STRESS PERIOD   49   TIME STEP   28\n',
               '- \n',
               '- SOLVING FOR HEAD \n',
               '-\n',
               '- NO OUTPUT CONTROL FOR STRESS PERIOD   49   TIME STEP   29\n',
               '- \n',
               '- SOLVING FOR HEAD \n',
               '-\n',
               '- NO OUTPUT CONTROL FOR STRESS PERIOD   49   TIME STEP   30\n',
               '-\n',
               '-\n',
               '-\n',
               '- STREAM LISTING     PERIOD     49   STEP       30\n',
               '-\n',
               '- LAYER ROW COL. STREAM  RCH.   FLOW INTO    STREAM     FLOW '
               'OUT OF   OVRLND.    DIRECT     STREAM      STREAM      '
               'STREAM     STREAM  STREAMBED   FLOW TO   CHNG. UNSAT. \n',
               '-                SEG.NO.  NO.   STRM. RCH.    LOSS       STRM. '
               'RCH.   RUNOFF     PRECIP       ET         HEAD        '
               'DEPTH      WIDTH  CONDCTNC.   WAT. TAB.\n',
               '-\n',
               '-   1    4    1     1     1    0.0000E+00  0.0000E+00   '
               '0.0000E+00  0.000E+00  0.000E+00  0.000E+00  1.39850E+02  '
               '0.000E+00  6.000E+00  8.400E-04  2.329E-04 -2.329E-04\n',
               '-   1    4    2     1     2    0.0000E+00  0.0000E+00   '
               '0.0000E+00  0.000E+00  0.000E+00  0.000E+00  1.39550E+02  '
               '0.000E+00  6.000E+00  8.400E-04  2.222E-04 -2.222E-04\n',
               '-   1    4    3     1     3    0.0000E+00  0.0000E+00   '
               '0.0000E+00  0.000E+00  0.000E+00  0.000E+00  1.39250E+02  '
               '0.000E+00  6.000E+00  8.400E-04  2.205E-04 -2.205E-04\n',
               '-   1    4    4     1     4    0.0000E+00  0.0000E+00   '
               '0.0000E+00  0.000E+00  0.000E+00  0.000E+00  1.38950E+02  '
               '0.000E+00  6.000E+00  8.400E-04  2.204E-04 -2.204E-04\n',
               '-   1    4    5     1     5    0.0000E+00  0.0000E+00   '
               '0.0000E+00  0.000E+00  0.000E+00  0.000E+00  1.38650E+02  '
               '0.000E+00  6.000E+00  8.400E-04  2.204E-04 -2.204E-04\n',
               '-   1    4    6     1     6    0.0000E+00  0.0000E+00   '
               '0.0000E+00  0.000E+00  0.000E+00  0.000E+00  1.38350E+02  '
               '0.000E+00  6.000E+00  8.400E-04  2.203E-04 -2.203E-04\n',
               '-   1    4    7     1     7    0.0000E+00  0.0000E+00   '
               '0.0000E+00  0.000E+00  0.000E+00  0.000E+00  1.38050E+02  '
               '0.000E+00  6.000E+00  8.400E-04  2.202E-04 -2.202E-04\n',
               '-   1    4    8     1     8    0.0000E+00  0.0000E+00   '
               '0.0000E+00  0.000E+00  0.000E+00  0.000E+00  1.37750E+02  '
               '0.000E+00  6.000E+00  8.400E-04  2.201E-04 -2.201E-04\n',
               '-   1    4    9     1     9    0.0000E+00  0.0000E+00   '
               '0.0000E+00  0.000E+00  0.000E+00  0.000E+00  1.37450E+02  '
               '0.000E+00  6.000E+00  8.400E-04  2.200E-04 -2.200E-04\n',
               '-   1    4   10     1    10    0.0000E+00  0.0000E+00   '
               '0.0000E+00  0.000E+00  0.000E+00  0.000E+00  1.37150E+02  '
               '0.000E+00  6.000E+00  8.400E-04  2.199E-04 -2.199E-04\n',
               '-   1    4   11     1    11    0.0000E+00  0.0000E+00   '
               '0.0000E+00  0.000E+00  0.000E+00  0.000E+00  1.36850E+02  '
               '0.000E+00  6.000E+00  8.400E-04  2.193E-04 -2.193E-04\n',
               '-   1    4   12     1    12    0.0000E+00  0.0000E+00   '
               '0.0000E+00  0.000E+00  0.000E+00  0.000E+00  1.36550E+02  '
               '0.000E+00  6.000E+00  8.400E-04  2.178E-04 -2.178E-04\n',
               '-   1    4   13     1    13    0.0000E+00  0.0000E+00   '
               '0.0000E+00  0.000E+00  0.000E+00  0.000E+00  1.36250E+02  '
               '0.000E+00  6.000E+00  8.400E-04  2.164E-04 -2.164E-04\n',
               '-   1    4   14     1    14    0.0000E+00  0.0000E+00   '
               '0.0000E+00  0.000E+00  0.000E+00  0.000E+00  1.35950E+02  '
               '0.000E+00  6.000E+00  8.400E-04  2.162E-04 -2.162E-04\n',
               '-   1    4   15     1    15    0.0000E+00  0.0000E+00   '
               '0.0000E+00  0.000E+00  0.000E+00  0.000E+00  1.35650E+02  '
               '0.000E+00  6.000E+00  8.400E-04  2.161E-04 -2.161E-04\n',
               '-   1    4   16     1    16    0.0000E+00  0.0000E+00   '
               '0.0000E+00  0.000E+00  0.000E+00  0.000E+00  1.35350E+02  '
               '0.000E+00  6.000E+00  8.400E-04  2.159E-04 -2.159E-04\n',
               '-   1    4   17     1    17    0.0000E+00  0.0000E+00   '
               '0.0000E+00  0.000E+00  0.000E+00  0.000E+00  1.35050E+02  '
               '0.000E+00  6.000E+00  8.400E-04  2.158E-04 -2.158E-04\n',
               '-   1    4   18     1    18    0.0000E+00  0.0000E+00   '
               '0.0000E+00  0.000E+00  0.000E+00  0.000E+00  1.34750E+02  '
               '0.000E+00  6.000E+00  8.400E-04  2.156E-04 -2.156E-04\n',
               '-   1    4   19     1    19    0.0000E+00  0.0000E+00   '
               '0.0000E+00  0.000E+00  0.000E+00  0.000E+00  1.34450E+02  '
               '0.000E+00  6.000E+00  8.400E-04  2.141E-04 -2.141E-04\n',
               '-   1    4   20     1    20    0.0000E+00  0.0000E+00   '
               '0.0000E+00  0.000E+00  0.000E+00  0.000E+00  1.34150E+02  '
               '0.000E+00  6.000E+00  8.400E-04  2.068E-04 -2.068E-04\n',
               '-   1    4   21     1    21    0.0000E+00  0.0000E+00   '
               '0.0000E+00  0.000E+00  0.000E+00  0.000E+00  1.33850E+02  '
               '0.000E+00  6.000E+00  8.400E-04  1.997E-04 -1.997E-04\n',
               '-   1    4   22     1    22    0.0000E+00  0.0000E+00   '
               '0.0000E+00  0.000E+00  0.000E+00  0.000E+00  1.33550E+02  '
               '0.000E+00  6.000E+00  8.400E-04  1.929E-04 -1.929E-04\n',
               '-   1    4   23     1    23    0.0000E+00  0.0000E+00   '
               '0.0000E+00  0.000E+00  0.000E+00  0.000E+00  1.33250E+02  '
               '0.000E+00  6.000E+00  8.400E-04  1.863E-04 -1.863E-04\n',
               '-   1    4   24     1    24    0.0000E+00  0.0000E+00   '
               '0.0000E+00  0.000E+00  0.000E+00  0.000E+00  1.32950E+02  '
               '0.000E+00  6.000E+00  8.400E-04  1.800E-04 -1.800E-04\n',
               '-   1    4   25     1    25    0.0000E+00  0.0000E+00   '
               '0.0000E+00  0.000E+00  0.000E+00  0.000E+00  1.32650E+02  '
               '0.000E+00  6.000E+00  8.400E-04  1.739E-04 -1.739E-04\n',
               '-   1    4   26     1    26    0.0000E+00  0.0000E+00   '
               '0.0000E+00  0.000E+00  0.000E+00  0.000E+00  1.32350E+02  '
               '0.000E+00  6.000E+00  8.400E-04  1.681E-04 -1.681E-04\n',
               '-   1    4   27     1    27    0.0000E+00  0.0000E+00   '
               '0.0000E+00  0.000E+00  0.000E+00  0.000E+00  1.32050E+02  '
               '0.000E+00  6.000E+00  8.400E-04  1.625E-04 -1.625E-04\n',
               '-   1    4   28     1    28    0.0000E+00  0.0000E+00   '
               '0.0000E+00  0.000E+00  0.000E+00  0.000E+00  1.31750E+02  '
               '0.000E+00  6.000E+00  8.400E-04  1.572E-04 -1.572E-04\n',
               '-   1    4   29     1    29    0.0000E+00  0.0000E+00   '
               '0.0000E+00  0.000E+00  0.000E+00  0.000E+00  1.31450E+02  '
               '0.000E+00  6.000E+00  8.400E-04  1.522E-04 -1.522E-04\n',
               '-   1    4   30     1    30    0.0000E+00  0.0000E+00   '
               '0.0000E+00  0.000E+00  0.000E+00  0.000E+00  1.31150E+02  '
               '0.000E+00  6.000E+00  8.400E-04  1.475E-04 -1.475E-04\n',
               '-   1    4   31     1    31    0.0000E+00  0.0000E+00   '
               '0.0000E+00  0.000E+00  0.000E+00  0.000E+00  1.30850E+02  '
               '0.000E+00  6.000E+00  8.400E-04  1.430E-04 -1.430E-04\n',
               '-   1    4   32     1    32    0.0000E+00  0.0000E+00   '
               '0.0000E+00  0.000E+00  0.000E+00  0.000E+00  1.30550E+02  '
               '0.000E+00  6.000E+00  8.400E-04  1.398E-04 -1.398E-04\n',
               '-   1    4   33     1    33    0.0000E+00  0.0000E+00   '
               '0.0000E+00  0.000E+00  0.000E+00  0.000E+00  1.30250E+02  '
               '0.000E+00  6.000E+00  8.400E-04  1.397E-04 -1.397E-04\n',
               '-   1    4   34     1    34    0.0000E+00  0.0000E+00   '
               '0.0000E+00  0.000E+00  0.000E+00  0.000E+00  1.29950E+02  '
               '0.000E+00  6.000E+00  8.400E-04  1.395E-04 -1.395E-04\n',
               '-   1    4   35     1    35    0.0000E+00  0.0000E+00   '
               '0.0000E+00  0.000E+00  0.000E+00  0.000E+00  1.29650E+02  '
               '0.000E+00  6.000E+00  8.400E-04  1.394E-04 -1.394E-04\n',
               '-   1    4   36     1    36    0.0000E+00  0.0000E+00   '
               '0.0000E+00  0.000E+00  0.000E+00  0.000E+00  1.29350E+02  '
               '0.000E+00  6.000E+00  8.400E-04  1.393E-04 -1.393E-04\n',
               '-   1    4   37     1    37    0.0000E+00  0.0000E+00   '
               '0.0000E+00  0.000E+00  0.000E+00  0.000E+00  1.29050E+02  '
               '0.000E+00  6.000E+00  8.400E-04  1.391E-04 -1.391E-04\n',
               '-   1    4   38     1    38    0.0000E+00  0.0000E+00   '
               '0.0000E+00  0.000E+00  0.000E+00  0.000E+00  1.28750E+02  '
               '0.000E+00  6.000E+00  8.400E-04  1.390E-04 -1.390E-04\n',
               '-   1    4   39     1    39    0.0000E+00  0.0000E+00   '
               '0.0000E+00  0.000E+00  0.000E+00  0.000E+00  1.28450E+02  '
               '0.000E+00  6.000E+00  8.400E-04  1.388E-04 -1.388E-04\n',
               '-   1    4   40     1    40    0.0000E+00  0.0000E+00   '
               '0.0000E+00  0.000E+00  0.000E+00  0.000E+00  1.28150E+02  '
               '0.000E+00  6.000E+00  8.400E-04  1.387E-04 -1.387E-04\n',
               '-   1    4   41     1    41    0.0000E+00  0.0000E+00   '
               '0.0000E+00  0.000E+00  0.000E+00  0.000E+00  1.27850E+02  '
               '0.000E+00  6.000E+00  8.400E-04  1.385E-04 -1.385E-04\n',
               '-   1    4   42     1    42    0.0000E+00  0.0000E+00   '
               '0.0000E+00  0.000E+00  0.000E+00  0.000E+00  1.27550E+02  '
               '0.000E+00  6.000E+00  8.400E-04  1.384E-04 -1.384E-04\n',
               '-   1    4   43     1    43    0.0000E+00  0.0000E+00   '
               '0.0000E+00  0.000E+00  0.000E+00  0.000E+00  1.27250E+02  '
               '0.000E+00  6.000E+00  8.400E-04  1.382E-04 -1.382E-04\n',
               '-   1    4   44     1    44    0.0000E+00  0.0000E+00   '
               '0.0000E+00  0.000E+00  0.000E+00  0.000E+00  1.26950E+02  '
               '0.000E+00  6.000E+00  8.400E-04  1.381E-04 -1.381E-04\n',
               '-   1    4   45     1    45    0.0000E+00  0.0000E+00   '
               '0.0000E+00  0.000E+00  0.000E+00  0.000E+00  1.26650E+02  '
               '0.000E+00  6.000E+00  8.400E-04  1.379E-04 -1.379E-04\n',
               '-   1    4   46     1    46    0.0000E+00  0.0000E+00   '
               '0.0000E+00  0.000E+00  0.000E+00  0.000E+00  1.26350E+02  '
               '0.000E+00  6.000E+00  8.400E-04  1.378E-04 -1.378E-04\n',
               '-   1    4   47     1    47    0.0000E+00  0.0000E+00   '
               '0.0000E+00  0.000E+00  0.000E+00  0.000E+00  1.26050E+02  '
               '0.000E+00  6.000E+00  8.400E-04  1.377E-04 -1.377E-04\n',
               '-   1    4   48     1    48    0.0000E+00  0.0000E+00   '
               '0.0000E+00  0.000E+00  0.000E+00  0.000E+00  1.25750E+02  '
               '0.000E+00  6.000E+00  8.400E-04  1.375E-04 -1.375E-04\n',
               '-   1    4   49     1    49    0.0000E+00  0.0000E+00   '
               '0.0000E+00  0.000E+00  0.000E+00  0.000E+00  1.25450E+02  '
               '0.000E+00  6.000E+00  8.400E-04  1.374E-04 -1.374E-04\n',
               '-   1    4   50     1    50    0.0000E+00  0.0000E+00   '
               '0.0000E+00  0.000E+00  0.000E+00  0.000E+00  1.25150E+02  '
               '0.000E+00  6.000E+00  8.400E-04  1.373E-04 -1.373E-04\n',
               '-   1    4   51     1    51    0.0000E+00  0.0000E+00   '
               '0.0000E+00  0.000E+00  0.000E+00  0.000E+00  1.24850E+02  '
               '0.000E+00  6.000E+00  8.400E-04  1.372E-04 -1.372E-04\n',
               '-   1    4   52     1    52    0.0000E+00  0.0000E+00   '
               '0.0000E+00  0.000E+00  0.000E+00  0.000E+00  1.24550E+02  '
               '0.000E+00  6.000E+00  8.400E-04  1.370E-04 -1.370E-04\n',
               '-   1    4   53     1    53    0.0000E+00  0.0000E+00   '
               '0.0000E+00  0.000E+00  0.000E+00  0.000E+00  1.24250E+02  '
               '0.000E+00  6.000E+00  8.400E-04  1.369E-04 -1.369E-04\n',
               '-   1    4   54     1    54    0.0000E+00  0.0000E+00   '
               '0.0000E+00  0.000E+00  0.000E+00  0.000E+00  1.23950E+02  '
               '0.000E+00  6.000E+00  8.400E-04  1.368E-04 -1.368E-04\n',
               '-   1    4   55     1    55    0.0000E+00  0.0000E+00   '
               '0.0000E+00  0.000E+00  0.000E+00  0.000E+00  1.23650E+02  '
               '0.000E+00  6.000E+00  8.400E-04  1.367E-04 -1.367E-04\n',
               '-   1    4   56     1    56    0.0000E+00  0.0000E+00   '
               '0.0000E+00  0.000E+00  0.000E+00  0.000E+00  1.23350E+02  '
               '0.000E+00  6.000E+00  8.400E-04  1.366E-04 -1.366E-04\n',
               '-   1    4   57     1    57    0.0000E+00  0.0000E+00   '
               '0.0000E+00  0.000E+00  0.000E+00  0.000E+00  1.23050E+02  '
               '0.000E+00  6.000E+00  8.400E-04  1.380E-04 -1.380E-04\n',
               '-   1    4   58     1    58    0.0000E+00  0.0000E+00   '
               '0.0000E+00  0.000E+00  0.000E+00  0.000E+00  1.22750E+02  '
               '0.000E+00  6.000E+00  8.400E-04  1.426E-04 -1.426E-04\n',
               '-   1    4   59     1    59    0.0000E+00  0.0000E+00   '
               '0.0000E+00  0.000E+00  0.000E+00  0.000E+00  1.22450E+02  '
               '0.000E+00  6.000E+00  8.400E-04  1.482E-04 -1.482E-04\n',
               '-   1    4   60     1    60    0.0000E+00  0.0000E+00   '
               '0.0000E+00  0.000E+00  0.000E+00  0.000E+00  1.22150E+02  '
               '0.000E+00  6.000E+00  8.400E-04  1.552E-04 -1.552E-04\n',
               '-   1    4   61     1    61    0.0000E+00  0.0000E+00   '
               '0.0000E+00  0.000E+00  0.000E+00  0.000E+00  1.21850E+02  '
               '0.000E+00  6.000E+00  8.400E-04  1.616E-04 -1.616E-04\n',
               '-   1    4   62     1    62    0.0000E+00  0.0000E+00   '
               '0.0000E+00  0.000E+00  0.000E+00  0.000E+00  1.21550E+02  '
               '0.000E+00  6.000E+00  8.400E-04  1.679E-04 -1.679E-04\n',
               '-   1    4   63     1    63    0.0000E+00  0.0000E+00   '
               '0.0000E+00  0.000E+00  0.000E+00  0.000E+00  1.21250E+02  '
               '0.000E+00  6.000E+00  8.400E-04  1.747E-04 -1.747E-04\n',
               '-   1    4   64     1    64    0.0000E+00  0.0000E+00   '
               '0.0000E+00  0.000E+00  0.000E+00  0.000E+00  1.20950E+02  '
               '0.000E+00  6.000E+00  8.400E-04  1.819E-04 -1.819E-04\n',
               '-   1    4   65     1    65    0.0000E+00  0.0000E+00   '
               '0.0000E+00  0.000E+00  0.000E+00  0.000E+00  1.20650E+02  '
               '0.000E+00  6.000E+00  8.400E-04  1.896E-04 -1.896E-04\n',
               '-   1    4   66     1    66    0.0000E+00  0.0000E+00   '
               '0.0000E+00  0.000E+00  0.000E+00  0.000E+00  1.20350E+02  '
               '0.000E+00  6.000E+00  8.400E-04  1.977E-04 -1.977E-04\n',
               '-   1    4   67     1    67    0.0000E+00  0.0000E+00   '
               '0.0000E+00  0.000E+00  0.000E+00  0.000E+00  1.20050E+02  '
               '0.000E+00  6.000E+00  8.400E-04  2.063E-04 -2.063E-04\n',
               '-   1    4   68     1    68    0.0000E+00  0.0000E+00   '
               '0.0000E+00  0.000E+00  0.000E+00  0.000E+00  1.19750E+02  '
               '0.000E+00  6.000E+00  8.400E-04  2.104E-04 -2.104E-04\n',
               '-   1    4   69     1    69    0.0000E+00  0.0000E+00   '
               '0.0000E+00  0.000E+00  0.000E+00  0.000E+00  1.19450E+02  '
               '0.000E+00  6.000E+00  8.400E-04  2.103E-04 -2.103E-04\n',
               '-   1    4   70     1    70    0.0000E+00  0.0000E+00   '
               '0.0000E+00  0.000E+00  0.000E+00  0.000E+00  1.19150E+02  '
               '0.000E+00  6.000E+00  8.400E-04  2.102E-04 -2.102E-04\n',
               '-   1    4   71     1    71    0.0000E+00  0.0000E+00   '
               '0.0000E+00  0.000E+00  0.000E+00  0.000E+00  1.18850E+02  '
               '0.000E+00  6.000E+00  8.400E-04  2.101E-04 -2.101E-04\n',
               '-   1    4   72     1    72    0.0000E+00  0.0000E+00   '
               '0.0000E+00  0.000E+00  0.000E+00  0.000E+00  1.18550E+02  '
               '0.000E+00  6.000E+00  8.400E-04  2.101E-04 -2.101E-04\n',
               '-   1    4   73     1    73    0.0000E+00  0.0000E+00   '
               '0.0000E+00  0.000E+00  0.000E+00  0.000E+00  1.18250E+02  '
               '0.000E+00  6.000E+00  8.400E-04  2.100E-04 -2.100E-04\n',
               '-   1    4   74     1    74    0.0000E+00  0.0000E+00   '
               '0.0000E+00  0.000E+00  0.000E+00  0.000E+00  1.17950E+02  '
               '0.000E+00  6.000E+00  8.400E-04  2.099E-04 -2.099E-04\n',
               '-   1    4   75     1    75    0.0000E+00  0.0000E+00   '
               '0.0000E+00  0.000E+00  0.000E+00  0.000E+00  1.17650E+02  '
               '0.000E+00  6.000E+00  8.400E-04  2.099E-04 -2.099E-04\n',
               '-   1    4   76     1    76    0.0000E+00  0.0000E+00   '
               '0.0000E+00  0.000E+00  0.000E+00  0.000E+00  1.17350E+02  '
               '0.000E+00  6.000E+00  8.400E-04  2.098E-04 -2.098E-04\n',
               '-   1    4   77     1    77    0.0000E+00  0.0000E+00   '
               '0.0000E+00  0.000E+00  0.000E+00  0.000E+00  1.17050E+02  '
               '0.000E+00  6.000E+00  8.400E-04  2.107E-04 -2.107E-04\n',
               '-   1    4   78     1    78    0.0000E+00  0.0000E+00   '
               '0.0000E+00  0.000E+00  0.000E+00  0.000E+00  1.16750E+02  '
               '0.000E+00  6.000E+00  8.400E-04  2.125E-04 -2.125E-04\n',
               '-   1    4   79     1    79    0.0000E+00  0.0000E+00   '
               '0.0000E+00  0.000E+00  0.000E+00  0.000E+00  1.16450E+02  '
               '0.000E+00  6.000E+00  8.400E-04  2.124E-04 -2.124E-04\n',
               '-   1    4   80     1    80    0.0000E+00  0.0000E+00   '
               '0.0000E+00  0.000E+00  0.000E+00  0.000E+00  1.16150E+02  '
               '0.000E+00  6.000E+00  8.400E-04  2.143E-04 -2.143E-04\n',
               '-   1    4   81     1    81    0.0000E+00  0.0000E+00   '
               '0.0000E+00  0.000E+00  0.000E+00  0.000E+00  1.15850E+02  '
               '0.000E+00  6.000E+00  8.400E-04  2.293E-04 -2.293E-04\n',
               '-   1    4   82     1    82    0.0000E+00  0.0000E+00   '
               '0.0000E+00  0.000E+00  0.000E+00  0.000E+00  1.15550E+02  '
               '0.000E+00  6.000E+00  8.400E-04  2.448E-04 -2.448E-04\n',
               '-   1    4   83     1    83    0.0000E+00  0.0000E+00   '
               '0.0000E+00  0.000E+00  0.000E+00  0.000E+00  1.15250E+02  '
               '0.000E+00  6.000E+00  8.400E-04  2.608E-04 -2.608E-04\n',
               '-   1    4   84     1    84    0.0000E+00  0.0000E+00   '
               '0.0000E+00  0.000E+00  0.000E+00  0.000E+00  1.14950E+02  '
               '0.000E+00  6.000E+00  8.400E-04  2.775E-04 -2.775E-04\n',
               '-   1    4   85     1    85    0.0000E+00  0.0000E+00   '
               '0.0000E+00  0.000E+00  0.000E+00  0.000E+00  1.14650E+02  '
               '0.000E+00  6.000E+00  8.400E-04  2.948E-04 -2.948E-04\n',
               '-   1    4   86     1    86    0.0000E+00  0.0000E+00   '
               '0.0000E+00  0.000E+00  0.000E+00  0.000E+00  1.14350E+02  '
               '0.000E+00  6.000E+00  8.400E-04  3.022E-04 -3.022E-04\n',
               '-   1    4   87     1    87    0.0000E+00  0.0000E+00   '
               '0.0000E+00  0.000E+00  0.000E+00  0.000E+00  1.14050E+02  '
               '0.000E+00  6.000E+00  8.400E-04  3.023E-04 -3.023E-04\n',
               '-   1    4   88     1    88    0.0000E+00  0.0000E+00   '
               '0.0000E+00  0.000E+00  0.000E+00  0.000E+00  1.13750E+02  '
               '0.000E+00  6.000E+00  8.400E-04  3.045E-04 -3.045E-04\n',
               '-   1    4   89     1    89    0.0000E+00  0.0000E+00   '
               '0.0000E+00  0.000E+00  0.000E+00  0.000E+00  1.13450E+02  '
               '0.000E+00  6.000E+00  8.400E-04  3.056E-04 -3.056E-04\n',
               '-   1    4   90     1    90    0.0000E+00  0.0000E+00   '
               '0.0000E+00  0.000E+00  0.000E+00  0.000E+00  1.13150E+02  '
               '0.000E+00  6.000E+00  8.400E-04  3.057E-04 -3.057E-04\n',
               '-   1    4   91     1    91    0.0000E+00  0.0000E+00   '
               '0.0000E+00  0.000E+00  0.000E+00  0.000E+00  1.12850E+02  '
               '0.000E+00  6.000E+00  8.400E-04  3.058E-04 -3.058E-04\n',
               '-   1    4   92     1    92    0.0000E+00  0.0000E+00   '
               '0.0000E+00  0.000E+00  0.000E+00  0.000E+00  1.12550E+02  '
               '0.000E+00  6.000E+00  8.400E-04  3.060E-04 -3.060E-04\n',
               '-   1    4   93     1    93    0.0000E+00  0.0000E+00   '
               '0.0000E+00  0.000E+00  0.000E+00  0.000E+00  1.12250E+02  '
               '0.000E+00  6.000E+00  8.400E-04  3.213E-04 -3.213E-04\n',
               '-   1    4   94     1    94    0.0000E+00  0.0000E+00   '
               '0.0000E+00  0.000E+00  0.000E+00  0.000E+00  1.11950E+02  '
               '0.000E+00  6.000E+00  8.400E-04  3.507E-04 -3.507E-04\n',
               '-   1    4   95     1    95    0.0000E+00  0.0000E+00   '
               '0.0000E+00  0.000E+00  0.000E+00  0.000E+00  1.11650E+02  '
               '0.000E+00  6.000E+00  8.400E-04  3.768E-04 -3.768E-04\n',
               '-   1    4   96     1    96    0.0000E+00  0.0000E+00   '
               '0.0000E+00  0.000E+00  0.000E+00  0.000E+00  1.11350E+02  '
               '0.000E+00  6.000E+00  8.400E-04  4.020E-04 -4.020E-04\n',
               '-   1    4   97     1    97    0.0000E+00  0.0000E+00   '
               '0.0000E+00  0.000E+00  0.000E+00  0.000E+00  1.11050E+02  '
               '0.000E+00  6.000E+00  8.400E-04  4.272E-04 -4.272E-04\n',
               '-   1    4   98     1    98    0.0000E+00  0.0000E+00   '
               '0.0000E+00  0.000E+00  0.000E+00  0.000E+00  1.10750E+02  '
               '0.000E+00  6.000E+00  8.400E-04  4.300E-04 -4.300E-04\n',
               '-   1    4   99     1    99    0.0000E+00  0.0000E+00   '
               '0.0000E+00  0.000E+00  0.000E+00  0.000E+00  1.10450E+02  '
               '0.000E+00  6.000E+00  8.400E-04  4.349E-04 -4.349E-04\n',
               '-   1    4  100     1   100    0.0000E+00  0.0000E+00   '
               '0.0000E+00  0.000E+00  0.000E+00  0.000E+00  1.10150E+02  '
               '0.000E+00  6.000E+00  8.400E-04  4.370E-04 -4.370E-04\n',
               '-\n',
               '-\n',
               '-\n',
               '-1\n',
               '-  VOLUMETRIC BUDGET FOR UNSATURATED ZONE BENEATH STREAMS AT '
               'END OF TIME STEP    30 STRESS PERIOD  49\n',
               '-  '
               '------------------------------------------------------------------------------------------------\n',
               '-\n',
               '-    CUMULATIVE VOLUMES             L**3    RATES FOR THIS '
               'TIME STEP         L**3/T\n',
               '-    ------------------                     '
               '------------------------\n',
               '-\n',
               '-\n',
               '-          STREAM LOSS =     35586672.0000            STREAM '
               'LOSS =            0.0000\n',
               '-    CHANGE IN STORAGE =       217554.5625      CHANGE IN '
               'STORAGE =       -2.0911E-02\n',
               '-       RECHARGE TO GW =     35374180.0000         RECHARGE TO '
               'GW =        2.0911E-02\n',
               '-\n',
               '-             TOTAL IN =     35586672.0000               TOTAL '
               'IN =        2.0911E-02\n',
               '-\n',
               '-            TOTAL OUT =     35591736.0000              TOTAL '
               'OUT =        2.0911E-02\n',
               '-\n',
               '-             IN - OUT =        -5064.0000               IN - '
               'OUT =       -5.5879E-09\n',
               '-\n',
               '-  PERCENT DISCREPANCY =           -0.00      PERCENT '
               'DISCREPANCY =            -0.00\n',
               '-\n',
               '-\n',
               '-\n',
               '-1\n',
               '-  VOLUMETRIC BUDGET FOR ENTIRE MODEL AT END OF TIME STEP   '
               '30, STRESS PERIOD  49\n',
               '-  '
               '------------------------------------------------------------------------------\n',
               '-\n',
               '-     CUMULATIVE VOLUMES      L**3       RATES FOR THIS TIME '
               'STEP      L**3/T\n',
               '-     ------------------                 '
               '------------------------\n',
               '-\n',
               '-           IN:                                      IN:\n',
               '-           ---                                      ---\n',
               '-             STORAGE =    17848960.0000               STORAGE '
               '=           0.1672\n',
               '-       CONSTANT HEAD =           0.0000         CONSTANT HEAD '
               '=           0.0000\n',
               '-     HEAD DEP BOUNDS =           0.0000       HEAD DEP BOUNDS '
               '=           0.0000\n',
               '-      STREAM LEAKAGE =    35373644.0000        STREAM LEAKAGE '
               '=       2.0911E-02\n',
               '-\n',
               '-            TOTAL IN =    53222604.0000              TOTAL IN '
               '=           0.1881\n',
               '-\n',
               '-          OUT:                                     OUT:\n',
               '-          ----                                     ----\n',
               '-             STORAGE =    17097026.0000               STORAGE '
               '=           0.0000\n',
               '-       CONSTANT HEAD =           0.0000         CONSTANT HEAD '
               '=           0.0000\n',
               '-     HEAD DEP BOUNDS =    36124928.0000       HEAD DEP BOUNDS '
               '=           0.1880\n',
               '-      STREAM LEAKAGE =           0.0000        STREAM LEAKAGE '
               '=           0.0000\n',
               '-\n',
               '-           TOTAL OUT =    53221952.0000             TOTAL OUT '
               '=           0.1880\n',
               '-\n',
               '-            IN - OUT =         652.0000              IN - OUT '
               '=       1.2165E-04\n',
               '-\n',
               '- PERCENT DISCREPANCY =           0.00     PERCENT DISCREPANCY '
               '=           0.06\n',
               '-\n',
               '-\n',
               '-\n',
               '-\n',
               '-\n',
               '-\n',
               '-         TIME SUMMARY AT END OF TIME STEP   30 IN STRESS '
               'PERIOD   49\n',
               '-                    SECONDS     MINUTES      HOURS       '
               'DAYS        YEARS\n',
               '-                    '
               '-----------------------------------------------------------\n',
               '-   TIME STEP LENGTH 2.49961E+05  4166.0      69.434      '
               '2.8931     7.92080E-03\n',
               '- STRESS PERIOD TIME 2.59200E+06  43200.      720.00      '
               '30.000     8.21355E-02\n',
               '-         TOTAL TIME 1.27008E+08 2.11680E+06  35280.      '
               '1470.0      4.0246    \n',
               '-1\n',
               '-1\n',
               '-                            STRESS PERIOD NO.   50, LENGTH '
               '=   2592000.    \n',
               '-                            '
               '-----------------------------------------------\n',
               '-\n',
               '-                              NUMBER OF TIME STEPS =    30\n',
               '-\n',
               '-                               MULTIPLIER FOR DELT =     '
               '1.100\n',
               '-\n',
               '-                            INITIAL TIME STEP SIZE =   '
               '15757.40    \n',
               '-\n',
               '- REUSING NON-PARAMETER GHB CELLS FROM LAST STRESS PERIOD\n',
               '-\n',
               '-      7 GHB CELLS\n',
               '- \n',
               '- SOLVING FOR HEAD \n',
               '-\n',
               '- NO OUTPUT CONTROL FOR STRESS PERIOD   50   TIME STEP    1\n',
               '- \n',
               '- SOLVING FOR HEAD \n',
               '-\n',
               '- NO OUTPUT CONTROL FOR STRESS PERIOD   50   TIME STEP    2\n',
               '- \n',
               '- SOLVING FOR HEAD \n',
               '-\n',
               '- NO OUTPUT CONTROL FOR STRESS PERIOD   50   TIME STEP    3\n',
               '- \n',
               '- SOLVING FOR HEAD \n',
               '-\n',
               '- NO OUTPUT CONTROL FOR STRESS PERIOD   50   TIME STEP    4\n',
               '- \n',
               '- SOLVING FOR HEAD \n',
               '-\n',
               '- NO OUTPUT CONTROL FOR STRESS PERIOD   50   TIME STEP    5\n',
               '- \n',
               '- SOLVING FOR HEAD \n',
               '-\n',
               '- NO OUTPUT CONTROL FOR STRESS PERIOD   50   TIME STEP    6\n',
               '- \n',
               '- SOLVING FOR HEAD \n',
               '-\n',
               '- NO OUTPUT CONTROL FOR STRESS PERIOD   50   TIME STEP    7\n',
               '- \n',
               '- SOLVING FOR HEAD \n',
               '-\n',
               '- NO OUTPUT CONTROL FOR STRESS PERIOD   50   TIME STEP    8\n',
               '- \n',
               '- SOLVING FOR HEAD \n',
               '-\n',
               '- NO OUTPUT CONTROL FOR STRESS PERIOD   50   TIME STEP    9\n',
               '- \n',
               '- SOLVING FOR HEAD \n',
               '-\n',
               '- NO OUTPUT CONTROL FOR STRESS PERIOD   50   TIME STEP   10\n',
               '- \n',
               '- SOLVING FOR HEAD \n',
               '-\n',
               '- NO OUTPUT CONTROL FOR STRESS PERIOD   50   TIME STEP   11\n',
               '- \n',
               '- SOLVING FOR HEAD \n',
               '-\n',
               '- NO OUTPUT CONTROL FOR STRESS PERIOD   50   TIME STEP   12\n',
               '- \n',
               '- SOLVING FOR HEAD \n',
               '-\n',
               '- NO OUTPUT CONTROL FOR STRESS PERIOD   50   TIME STEP   13\n',
               '- \n',
               '- SOLVING FOR HEAD \n',
               '-\n',
               '- NO OUTPUT CONTROL FOR STRESS PERIOD   50   TIME STEP   14\n',
               '- \n',
               '- SOLVING FOR HEAD \n',
               '-\n',
               '- NO OUTPUT CONTROL FOR STRESS PERIOD   50   TIME STEP   15\n',
               '- \n',
               '- SOLVING FOR HEAD \n',
               '-\n',
               '- NO OUTPUT CONTROL FOR STRESS PERIOD   50   TIME STEP   16\n',
               '- \n',
               '- SOLVING FOR HEAD \n',
               '-\n',
               '- NO OUTPUT CONTROL FOR STRESS PERIOD   50   TIME STEP   17\n',
               '- \n',
               '- SOLVING FOR HEAD \n',
               '-\n',
               '- NO OUTPUT CONTROL FOR STRESS PERIOD   50   TIME STEP   18\n',
               '- \n',
               '- SOLVING FOR HEAD \n',
               '-\n',
               '- NO OUTPUT CONTROL FOR STRESS PERIOD   50   TIME STEP   19\n',
               '- \n',
               '- SOLVING FOR HEAD \n',
               '-\n',
               '- NO OUTPUT CONTROL FOR STRESS PERIOD   50   TIME STEP   20\n',
               '- \n',
               '- SOLVING FOR HEAD \n',
               '-\n',
               '- NO OUTPUT CONTROL FOR STRESS PERIOD   50   TIME STEP   21\n',
               '- \n',
               '- SOLVING FOR HEAD \n',
               '-\n',
               '- NO OUTPUT CONTROL FOR STRESS PERIOD   50   TIME STEP   22\n',
               '- \n',
               '- SOLVING FOR HEAD \n',
               '-\n',
               '- NO OUTPUT CONTROL FOR STRESS PERIOD   50   TIME STEP   23\n',
               '- \n',
               '- SOLVING FOR HEAD \n',
               '-\n',
               '- NO OUTPUT CONTROL FOR STRESS PERIOD   50   TIME STEP   24\n',
               '- \n',
               '- SOLVING FOR HEAD \n',
               '-\n',
               '- NO OUTPUT CONTROL FOR STRESS PERIOD   50   TIME STEP   25\n',
               '- \n',
               '- SOLVING FOR HEAD \n',
               '-\n',
               '- NO OUTPUT CONTROL FOR STRESS PERIOD   50   TIME STEP   26\n',
               '- \n',
               '- SOLVING FOR HEAD \n',
               '-\n',
               '- NO OUTPUT CONTROL FOR STRESS PERIOD   50   TIME STEP   27\n',
               '- \n',
               '- SOLVING FOR HEAD \n',
               '-\n',
               '- NO OUTPUT CONTROL FOR STRESS PERIOD   50   TIME STEP   28\n',
               '- \n',
               '- SOLVING FOR HEAD \n',
               '-\n',
               '- NO OUTPUT CONTROL FOR STRESS PERIOD   50   TIME STEP   29\n',
               '- \n',
               '- SOLVING FOR HEAD \n',
               '-\n',
               '- OUTPUT CONTROL FOR STRESS PERIOD   50   TIME STEP   30\n',
               '-    PRINT HEAD FOR ALL LAYERS\n',
               '-    PRINT BUDGET\n',
               '-    SAVE BUDGET\n',
               '-\n',
               '-  HEAD DEP BOUNDS   PERIOD   50   STEP  30\n',
               '- BOUNDARY      1   LAYER   1   ROW     1   COL   100   RATE   '
               '-2.738157E-02\n',
               '- BOUNDARY      2   LAYER   1   ROW     2   COL   100   RATE   '
               '-2.737557E-02\n',
               '- BOUNDARY      3   LAYER   1   ROW     3   COL   100   RATE   '
               '-2.709010E-02\n',
               '- BOUNDARY      4   LAYER   1   ROW     4   COL   100   RATE   '
               '-1.907932E-02\n',
               '- BOUNDARY      5   LAYER   1   ROW     5   COL   100   RATE   '
               '-2.709010E-02\n',
               '- BOUNDARY      6   LAYER   1   ROW     6   COL   100   RATE   '
               '-2.737556E-02\n',
               '- BOUNDARY      7   LAYER   1   ROW     7   COL   100   RATE   '
               '-2.738157E-02\n',
               '-\n',
               '-\n',
               '-\n',
               '- STREAM LISTING     PERIOD     50   STEP       30\n',
               '-\n',
               '- LAYER ROW COL. STREAM  RCH.   FLOW INTO    STREAM     FLOW '
               'OUT OF   OVRLND.    DIRECT     STREAM      STREAM      '
               'STREAM     STREAM  STREAMBED   FLOW TO   CHNG. UNSAT. \n',
               '-                SEG.NO.  NO.   STRM. RCH.    LOSS       STRM. '
               'RCH.   RUNOFF     PRECIP       ET         HEAD        '
               'DEPTH      WIDTH  CONDCTNC.   WAT. TAB.\n',
               '-\n',
               '-   1    4    1     1     1    9.0000E-01  5.5751E-04   '
               '8.9944E-01  0.000E+00  0.000E+00  0.000E+00  1.40554E+02  '
               '7.036E-01  2.654E+00  4.632E-04  8.734E-05  4.702E-04\n',
               '-   1    4    2     1     2    8.9944E-01  5.5733E-04   '
               '8.9889E-01  0.000E+00  0.000E+00  0.000E+00  1.40253E+02  '
               '7.034E-01  2.654E+00  4.631E-04  8.728E-05  4.700E-04\n',
               '-   1    4    3     1     3    8.9889E-01  5.5714E-04   '
               '8.9833E-01  0.000E+00  0.000E+00  0.000E+00  1.39953E+02  '
               '7.032E-01  2.654E+00  4.631E-04  8.724E-05  4.699E-04\n',
               '-   1    4    4     1     4    8.9833E-01  5.5696E-04   '
               '8.9777E-01  0.000E+00  0.000E+00  0.000E+00  1.39653E+02  '
               '7.029E-01  2.654E+00  4.630E-04  8.719E-05  4.698E-04\n',
               '-   1    4    5     1     5    8.9777E-01  5.5678E-04   '
               '8.9721E-01  0.000E+00  0.000E+00  0.000E+00  1.39353E+02  '
               '7.027E-01  2.653E+00  4.629E-04  8.714E-05  4.696E-04\n',
               '-   1    4    6     1     6    8.9721E-01  5.5660E-04   '
               '8.9666E-01  0.000E+00  0.000E+00  0.000E+00  1.39053E+02  '
               '7.025E-01  2.653E+00  4.629E-04  8.710E-05  4.695E-04\n',
               '-   1    4    7     1     7    8.9666E-01  5.5642E-04   '
               '8.9610E-01  0.000E+00  0.000E+00  0.000E+00  1.38752E+02  '
               '7.023E-01  2.653E+00  4.628E-04  8.707E-05  4.694E-04\n',
               '-   1    4    8     1     8    8.9610E-01  5.5624E-04   '
               '8.9555E-01  0.000E+00  0.000E+00  0.000E+00  1.38452E+02  '
               '7.021E-01  2.653E+00  4.627E-04  8.706E-05  4.692E-04\n',
               '-   1    4    9     1     9    8.9555E-01  5.5606E-04   '
               '8.9499E-01  0.000E+00  0.000E+00  0.000E+00  1.38152E+02  '
               '7.019E-01  2.652E+00  4.627E-04  9.341E-05  4.627E-04\n',
               '-   1    4   10     1    10    8.9499E-01  5.5588E-04   '
               '8.9443E-01  0.000E+00  0.000E+00  0.000E+00  1.37852E+02  '
               '7.017E-01  2.652E+00  4.626E-04  1.390E-04  4.168E-04\n',
               '-   1    4   11     1    11    8.9443E-01  5.5570E-04   '
               '8.9388E-01  0.000E+00  0.000E+00  0.000E+00  1.37551E+02  '
               '7.015E-01  2.652E+00  4.625E-04  1.836E-04  3.721E-04\n',
               '-   1    4   12     1    12    8.9388E-01  5.5552E-04   '
               '8.9332E-01  0.000E+00  0.000E+00  0.000E+00  1.37251E+02  '
               '7.013E-01  2.651E+00  4.625E-04  2.270E-04  3.285E-04\n',
               '-   1    4   13     1    13    8.9332E-01  5.5534E-04   '
               '8.9277E-01  0.000E+00  0.000E+00  0.000E+00  1.36951E+02  '
               '7.010E-01  2.651E+00  4.624E-04  2.693E-04  2.861E-04\n',
               '-   1    4   14     1    14    8.9277E-01  5.5516E-04   '
               '8.9221E-01  0.000E+00  0.000E+00  0.000E+00  1.36651E+02  '
               '7.008E-01  2.651E+00  4.623E-04  3.104E-04  2.448E-04\n',
               '-   1    4   15     1    15    8.9221E-01  5.5498E-04   '
               '8.9166E-01  0.000E+00  0.000E+00  0.000E+00  1.36351E+02  '
               '7.006E-01  2.651E+00  4.622E-04  3.503E-04  2.046E-04\n',
               '-   1    4   16     1    16    8.9166E-01  5.5480E-04   '
               '8.9110E-01  0.000E+00  0.000E+00  0.000E+00  1.36050E+02  '
               '7.004E-01  2.650E+00  4.622E-04  3.891E-04  1.657E-04\n',
               '-   1    4   17     1    17    8.9110E-01  5.5462E-04   '
               '8.9055E-01  0.000E+00  0.000E+00  0.000E+00  1.35750E+02  '
               '7.002E-01  2.650E+00  4.621E-04  4.267E-04  1.279E-04\n',
               '-   1    4   18     1    18    8.9055E-01  5.5444E-04   '
               '8.8999E-01  0.000E+00  0.000E+00  0.000E+00  1.35450E+02  '
               '7.000E-01  2.650E+00  4.620E-04  4.631E-04  9.134E-05\n',
               '-   1    4   19     1    19    8.8999E-01  5.5426E-04   '
               '8.8944E-01  0.000E+00  0.000E+00  0.000E+00  1.35150E+02  '
               '6.998E-01  2.650E+00  4.620E-04  4.983E-04  5.596E-05\n',
               '-   1    4   20     1    20    8.8944E-01  5.5408E-04   '
               '8.8888E-01  0.000E+00  0.000E+00  0.000E+00  1.34850E+02  '
               '6.996E-01  2.649E+00  4.619E-04  5.323E-04  2.181E-05\n',
               '-   1    4   21     1    21    8.8888E-01  5.5390E-04   '
               '8.8833E-01  0.000E+00  0.000E+00  0.000E+00  1.34549E+02  '
               '6.994E-01  2.649E+00  4.618E-04  5.622E-04 -8.338E-06\n',
               '-   1    4   22     1    22    8.8833E-01  5.5372E-04   '
               '8.8778E-01  0.000E+00  0.000E+00  0.000E+00  1.34249E+02  '
               '6.991E-01  2.649E+00  4.618E-04  5.620E-04 -8.243E-06\n',
               '-   1    4   23     1    23    8.8778E-01  5.5354E-04   '
               '8.8722E-01  0.000E+00  0.000E+00  0.000E+00  1.33949E+02  '
               '6.989E-01  2.649E+00  4.617E-04  5.616E-04 -8.098E-06\n',
               '-   1    4   24     1    24    8.8722E-01  5.5336E-04   '
               '8.8667E-01  0.000E+00  0.000E+00  0.000E+00  1.33649E+02  '
               '6.987E-01  2.648E+00  4.616E-04  5.613E-04 -7.933E-06\n',
               '-   1    4   25     1    25    8.8667E-01  5.5318E-04   '
               '8.8612E-01  0.000E+00  0.000E+00  0.000E+00  1.33349E+02  '
               '6.985E-01  2.648E+00  4.616E-04  5.609E-04 -7.763E-06\n',
               '-   1    4   26     1    26    8.8612E-01  5.5300E-04   '
               '8.8556E-01  0.000E+00  0.000E+00  0.000E+00  1.33048E+02  '
               '6.983E-01  2.648E+00  4.615E-04  5.606E-04 -7.591E-06\n',
               '-   1    4   27     1    27    8.8556E-01  5.5282E-04   '
               '8.8501E-01  0.000E+00  0.000E+00  0.000E+00  1.32748E+02  '
               '6.981E-01  2.648E+00  4.614E-04  5.602E-04 -7.418E-06\n',
               '-   1    4   28     1    28    8.8501E-01  5.5264E-04   '
               '8.8446E-01  0.000E+00  0.000E+00  0.000E+00  1.32448E+02  '
               '6.979E-01  2.647E+00  4.613E-04  5.599E-04 -7.247E-06\n',
               '-   1    4   29     1    29    8.8446E-01  5.5246E-04   '
               '8.8391E-01  0.000E+00  0.000E+00  0.000E+00  1.32148E+02  '
               '6.977E-01  2.647E+00  4.613E-04  5.595E-04 -7.076E-06\n',
               '-   1    4   30     1    30    8.8391E-01  5.5228E-04   '
               '8.8335E-01  0.000E+00  0.000E+00  0.000E+00  1.31847E+02  '
               '6.975E-01  2.647E+00  4.612E-04  5.592E-04 -6.907E-06\n',
               '-   1    4   31     1    31    8.8335E-01  5.5210E-04   '
               '8.8280E-01  0.000E+00  0.000E+00  0.000E+00  1.31547E+02  '
               '6.972E-01  2.647E+00  4.611E-04  5.588E-04 -6.740E-06\n',
               '-   1    4   32     1    32    8.8280E-01  5.5192E-04   '
               '8.8225E-01  0.000E+00  0.000E+00  0.000E+00  1.31247E+02  '
               '6.970E-01  2.646E+00  4.611E-04  5.585E-04 -6.574E-06\n',
               '-   1    4   33     1    33    8.8225E-01  5.5174E-04   '
               '8.8170E-01  0.000E+00  0.000E+00  0.000E+00  1.30947E+02  '
               '6.968E-01  2.646E+00  4.610E-04  5.582E-04 -6.412E-06\n',
               '-   1    4   34     1    34    8.8170E-01  5.5156E-04   '
               '8.8115E-01  0.000E+00  0.000E+00  0.000E+00  1.30647E+02  '
               '6.966E-01  2.646E+00  4.609E-04  5.578E-04 -6.251E-06\n',
               '-   1    4   35     1    35    8.8115E-01  5.5138E-04   '
               '8.8059E-01  0.000E+00  0.000E+00  0.000E+00  1.30346E+02  '
               '6.964E-01  2.646E+00  4.609E-04  5.575E-04 -6.093E-06\n',
               '-   1    4   36     1    36    8.8059E-01  5.5121E-04   '
               '8.8004E-01  0.000E+00  0.000E+00  0.000E+00  1.30046E+02  '
               '6.962E-01  2.645E+00  4.608E-04  5.571E-04 -5.936E-06\n',
               '-   1    4   37     1    37    8.8004E-01  5.5103E-04   '
               '8.7949E-01  0.000E+00  0.000E+00  0.000E+00  1.29746E+02  '
               '6.960E-01  2.645E+00  4.607E-04  5.568E-04 -5.782E-06\n',
               '-   1    4   38     1    38    8.7949E-01  5.5085E-04   '
               '8.7894E-01  0.000E+00  0.000E+00  0.000E+00  1.29446E+02  '
               '6.958E-01  2.645E+00  4.607E-04  5.565E-04 -5.630E-06\n',
               '-   1    4   39     1    39    8.7894E-01  5.5067E-04   '
               '8.7839E-01  0.000E+00  0.000E+00  0.000E+00  1.29146E+02  '
               '6.956E-01  2.645E+00  4.606E-04  5.562E-04 -5.483E-06\n',
               '-   1    4   40     1    40    8.7839E-01  5.5049E-04   '
               '8.7784E-01  0.000E+00  0.000E+00  0.000E+00  1.28845E+02  '
               '6.954E-01  2.644E+00  4.605E-04  5.558E-04 -5.339E-06\n',
               '-   1    4   41     1    41    8.7784E-01  5.5031E-04   '
               '8.7729E-01  0.000E+00  0.000E+00  0.000E+00  1.28545E+02  '
               '6.951E-01  2.644E+00  4.605E-04  5.555E-04 -5.199E-06\n',
               '-   1    4   42     1    42    8.7729E-01  5.5013E-04   '
               '8.7674E-01  0.000E+00  0.000E+00  0.000E+00  1.28245E+02  '
               '6.949E-01  2.644E+00  4.604E-04  5.552E-04 -5.061E-06\n',
               '-   1    4   43     1    43    8.7674E-01  5.4995E-04   '
               '8.7619E-01  0.000E+00  0.000E+00  0.000E+00  1.27945E+02  '
               '6.947E-01  2.644E+00  4.603E-04  5.549E-04 -4.929E-06\n',
               '-   1    4   44     1    44    8.7619E-01  5.4977E-04   '
               '8.7564E-01  0.000E+00  0.000E+00  0.000E+00  1.27645E+02  '
               '6.945E-01  2.643E+00  4.602E-04  5.546E-04 -4.801E-06\n',
               '-   1    4   45     1    45    8.7564E-01  5.4959E-04   '
               '8.7509E-01  0.000E+00  0.000E+00  0.000E+00  1.27344E+02  '
               '6.943E-01  2.643E+00  4.602E-04  5.543E-04 -4.678E-06\n',
               '-   1    4   46     1    46    8.7509E-01  5.4941E-04   '
               '8.7454E-01  0.000E+00  0.000E+00  0.000E+00  1.27044E+02  '
               '6.941E-01  2.643E+00  4.601E-04  5.540E-04 -4.561E-06\n',
               '-   1    4   47     1    47    8.7454E-01  5.4924E-04   '
               '8.7399E-01  0.000E+00  0.000E+00  0.000E+00  1.26744E+02  '
               '6.939E-01  2.643E+00  4.600E-04  5.537E-04 -4.449E-06\n',
               '-   1    4   48     1    48    8.7399E-01  5.4906E-04   '
               '8.7344E-01  0.000E+00  0.000E+00  0.000E+00  1.26444E+02  '
               '6.937E-01  2.642E+00  4.600E-04  5.534E-04 -4.341E-06\n',
               '-   1    4   49     1    49    8.7344E-01  5.4888E-04   '
               '8.7289E-01  0.000E+00  0.000E+00  0.000E+00  1.26143E+02  '
               '6.935E-01  2.642E+00  4.599E-04  5.531E-04 -4.240E-06\n',
               '-   1    4   50     1    50    8.7289E-01  5.4870E-04   '
               '8.7234E-01  0.000E+00  0.000E+00  0.000E+00  1.25843E+02  '
               '6.932E-01  2.642E+00  4.598E-04  5.528E-04 -4.065E-06\n',
               '-   1    4   51     1    51    8.7234E-01  5.4852E-04   '
               '8.7180E-01  0.000E+00  0.000E+00  0.000E+00  1.25543E+02  '
               '6.930E-01  2.642E+00  4.598E-04  5.524E-04 -3.851E-06\n',
               '-   1    4   52     1    52    8.7180E-01  5.4834E-04   '
               '8.7125E-01  0.000E+00  0.000E+00  0.000E+00  1.25243E+02  '
               '6.928E-01  2.641E+00  4.597E-04  5.520E-04 -3.667E-06\n',
               '-   1    4   53     1    53    8.7125E-01  5.4816E-04   '
               '8.7070E-01  0.000E+00  0.000E+00  0.000E+00  1.24943E+02  '
               '6.926E-01  2.641E+00  4.596E-04  5.518E-04 -3.599E-06\n',
               '-   1    4   54     1    54    8.7070E-01  5.4798E-04   '
               '8.7015E-01  0.000E+00  0.000E+00  0.000E+00  1.24642E+02  '
               '6.924E-01  2.641E+00  4.596E-04  5.515E-04 -3.537E-06\n',
               '-   1    4   55     1    55    8.7015E-01  5.4781E-04   '
               '8.6960E-01  0.000E+00  0.000E+00  0.000E+00  1.24342E+02  '
               '6.922E-01  2.641E+00  4.595E-04  5.513E-04 -3.482E-06\n',
               '-   1    4   56     1    56    8.6960E-01  5.4763E-04   '
               '8.6906E-01  0.000E+00  0.000E+00  0.000E+00  1.24042E+02  '
               '6.920E-01  2.640E+00  4.594E-04  5.511E-04 -3.434E-06\n',
               '-   1    4   57     1    57    8.6906E-01  5.4745E-04   '
               '8.6851E-01  0.000E+00  0.000E+00  0.000E+00  1.23742E+02  '
               '6.918E-01  2.640E+00  4.594E-04  5.508E-04 -3.393E-06\n',
               '-   1    4   58     1    58    8.6851E-01  5.4727E-04   '
               '8.6796E-01  0.000E+00  0.000E+00  0.000E+00  1.23442E+02  '
               '6.916E-01  2.640E+00  4.593E-04  5.506E-04 -3.359E-06\n',
               '-   1    4   59     1    59    8.6796E-01  5.4709E-04   '
               '8.6741E-01  0.000E+00  0.000E+00  0.000E+00  1.23141E+02  '
               '6.914E-01  2.640E+00  4.592E-04  5.504E-04 -3.335E-06\n',
               '-   1    4   60     1    60    8.6741E-01  5.4691E-04   '
               '8.6687E-01  0.000E+00  0.000E+00  0.000E+00  1.22841E+02  '
               '6.911E-01  2.639E+00  4.592E-04  5.502E-04 -3.320E-06\n',
               '-   1    4   61     1    61    8.6687E-01  5.4674E-04   '
               '8.6632E-01  0.000E+00  0.000E+00  0.000E+00  1.22541E+02  '
               '6.909E-01  2.639E+00  4.591E-04  5.500E-04 -3.312E-06\n',
               '-   1    4   62     1    62    8.6632E-01  5.4656E-04   '
               '8.6577E-01  0.000E+00  0.000E+00  0.000E+00  1.22241E+02  '
               '6.907E-01  2.639E+00  4.590E-04  5.499E-04 -3.314E-06\n',
               '-   1    4   63     1    63    8.6577E-01  5.4638E-04   '
               '8.6523E-01  0.000E+00  0.000E+00  0.000E+00  1.21941E+02  '
               '6.905E-01  2.639E+00  4.589E-04  5.497E-04 -3.320E-06\n',
               '-   1    4   64     1    64    8.6523E-01  5.4620E-04   '
               '8.6468E-01  0.000E+00  0.000E+00  0.000E+00  1.21640E+02  '
               '6.903E-01  2.638E+00  4.589E-04  5.495E-04 -3.323E-06\n',
               '-   1    4   65     1    65    8.6468E-01  5.4602E-04   '
               '8.6414E-01  0.000E+00  0.000E+00  0.000E+00  1.21340E+02  '
               '6.901E-01  2.638E+00  4.588E-04  5.493E-04 -3.291E-06\n',
               '-   1    4   66     1    66    8.6414E-01  5.4585E-04   '
               '8.6359E-01  0.000E+00  0.000E+00  0.000E+00  1.21040E+02  '
               '6.899E-01  2.638E+00  4.587E-04  5.239E-04  2.194E-05\n',
               '-   1    4   67     1    67    8.6359E-01  5.4567E-04   '
               '8.6304E-01  0.000E+00  0.000E+00  0.000E+00  1.20740E+02  '
               '6.897E-01  2.638E+00  4.587E-04  4.817E-04  6.396E-05\n',
               '-   1    4   68     1    68    8.6304E-01  5.4549E-04   '
               '8.6250E-01  0.000E+00  0.000E+00  0.000E+00  1.20439E+02  '
               '6.895E-01  2.637E+00  4.586E-04  4.373E-04  1.082E-04\n',
               '-   1    4   69     1    69    8.6250E-01  5.4531E-04   '
               '8.6195E-01  0.000E+00  0.000E+00  0.000E+00  1.20139E+02  '
               '6.892E-01  2.637E+00  4.585E-04  3.905E-04  1.548E-04\n',
               '-   1    4   70     1    70    8.6195E-01  5.4513E-04   '
               '8.6141E-01  0.000E+00  0.000E+00  0.000E+00  1.19839E+02  '
               '6.890E-01  2.637E+00  4.585E-04  3.415E-04  2.036E-04\n',
               '-   1    4   71     1    71    8.6141E-01  5.4496E-04   '
               '8.6086E-01  0.000E+00  0.000E+00  0.000E+00  1.19539E+02  '
               '6.888E-01  2.637E+00  4.584E-04  2.906E-04  2.544E-04\n',
               '-   1    4   72     1    72    8.6086E-01  5.4478E-04   '
               '8.6032E-01  0.000E+00  0.000E+00  0.000E+00  1.19239E+02  '
               '6.886E-01  2.636E+00  4.583E-04  2.388E-04  3.060E-04\n',
               '-   1    4   73     1    73    8.6032E-01  5.4460E-04   '
               '8.5977E-01  0.000E+00  0.000E+00  0.000E+00  1.18938E+02  '
               '6.884E-01  2.636E+00  4.583E-04  1.827E-04  3.619E-04\n',
               '-   1    4   74     1    74    8.5977E-01  5.4442E-04   '
               '8.5923E-01  0.000E+00  0.000E+00  0.000E+00  1.18638E+02  '
               '6.882E-01  2.636E+00  4.582E-04  1.243E-04  4.201E-04\n',
               '-   1    4   75     1    75    8.5923E-01  5.4424E-04   '
               '8.5869E-01  0.000E+00  0.000E+00  0.000E+00  1.18338E+02  '
               '6.880E-01  2.636E+00  4.581E-04  8.331E-05  4.609E-04\n',
               '-   1    4   76     1    76    8.5869E-01  5.4407E-04   '
               '8.5814E-01  0.000E+00  0.000E+00  0.000E+00  1.18038E+02  '
               '6.878E-01  2.635E+00  4.581E-04  8.322E-05  4.608E-04\n',
               '-   1    4   77     1    77    8.5814E-01  5.4389E-04   '
               '8.5760E-01  0.000E+00  0.000E+00  0.000E+00  1.17738E+02  '
               '6.876E-01  2.635E+00  4.580E-04  8.318E-05  4.607E-04\n',
               '-   1    4   78     1    78    8.5760E-01  5.4371E-04   '
               '8.5705E-01  0.000E+00  0.000E+00  0.000E+00  1.17437E+02  '
               '6.874E-01  2.635E+00  4.579E-04  8.317E-05  4.605E-04\n',
               '-   1    4   79     1    79    8.5705E-01  5.4353E-04   '
               '8.5651E-01  0.000E+00  0.000E+00  0.000E+00  1.17137E+02  '
               '6.871E-01  2.635E+00  4.578E-04  8.318E-05  4.604E-04\n',
               '-   1    4   80     1    80    8.5651E-01  5.4336E-04   '
               '8.5597E-01  0.000E+00  0.000E+00  0.000E+00  1.16837E+02  '
               '6.869E-01  2.634E+00  4.578E-04  8.321E-05  4.601E-04\n',
               '-   1    4   81     1    81    8.5597E-01  5.4318E-04   '
               '8.5542E-01  0.000E+00  0.000E+00  0.000E+00  1.16537E+02  '
               '6.867E-01  2.634E+00  4.577E-04  8.325E-05  4.599E-04\n',
               '-   1    4   82     1    82    8.5542E-01  5.4300E-04   '
               '8.5488E-01  0.000E+00  0.000E+00  0.000E+00  1.16237E+02  '
               '6.865E-01  2.634E+00  4.576E-04  8.331E-05  4.597E-04\n',
               '-   1    4   83     1    83    8.5488E-01  5.4282E-04   '
               '8.5434E-01  0.000E+00  0.000E+00  0.000E+00  1.15936E+02  '
               '6.863E-01  2.634E+00  4.576E-04  8.338E-05  4.594E-04\n',
               '-   1    4   84     1    84    8.5434E-01  5.4265E-04   '
               '8.5379E-01  0.000E+00  0.000E+00  0.000E+00  1.15636E+02  '
               '6.861E-01  2.633E+00  4.575E-04  8.345E-05  4.592E-04\n',
               '-   1    4   85     1    85    8.5379E-01  5.4247E-04   '
               '8.5325E-01  0.000E+00  0.000E+00  0.000E+00  1.15336E+02  '
               '6.859E-01  2.633E+00  4.574E-04  8.374E-05  4.587E-04\n',
               '-   1    4   86     1    86    8.5325E-01  5.4229E-04   '
               '8.5271E-01  0.000E+00  0.000E+00  0.000E+00  1.15036E+02  '
               '6.857E-01  2.633E+00  4.574E-04  8.982E-05  4.525E-04\n',
               '-   1    4   87     1    87    8.5271E-01  5.4212E-04   '
               '8.5217E-01  0.000E+00  0.000E+00  0.000E+00  1.14735E+02  '
               '6.855E-01  2.633E+00  4.573E-04  1.110E-04  4.311E-04\n',
               '-   1    4   88     1    88    8.5217E-01  5.4194E-04   '
               '8.5163E-01  0.000E+00  0.000E+00  0.000E+00  1.14435E+02  '
               '6.853E-01  2.632E+00  4.572E-04  1.329E-04  4.091E-04\n',
               '-   1    4   89     1    89    8.5163E-01  5.4176E-04   '
               '8.5108E-01  0.000E+00  0.000E+00  0.000E+00  1.14135E+02  '
               '6.850E-01  2.632E+00  4.572E-04  1.416E-04  4.001E-04\n',
               '-   1    4   90     1    90    8.5108E-01  5.4158E-04   '
               '8.5054E-01  0.000E+00  0.000E+00  0.000E+00  1.13835E+02  '
               '6.848E-01  2.632E+00  4.571E-04  1.420E-04  3.996E-04\n',
               '-   1    4   91     1    91    8.5054E-01  5.4141E-04   '
               '8.5000E-01  0.000E+00  0.000E+00  0.000E+00  1.13535E+02  '
               '6.846E-01  2.632E+00  4.570E-04  1.424E-04  3.990E-04\n',
               '-   1    4   92     1    92    8.5000E-01  5.4123E-04   '
               '8.4946E-01  0.000E+00  0.000E+00  0.000E+00  1.13234E+02  '
               '6.844E-01  2.631E+00  4.570E-04  1.428E-04  3.984E-04\n',
               '-   1    4   93     1    93    8.4946E-01  5.4105E-04   '
               '8.4892E-01  0.000E+00  0.000E+00  0.000E+00  1.12934E+02  '
               '6.842E-01  2.631E+00  4.569E-04  1.433E-04  3.977E-04\n',
               '-   1    4   94     1    94    8.4892E-01  5.4088E-04   '
               '8.4838E-01  0.000E+00  0.000E+00  0.000E+00  1.12634E+02  '
               '6.840E-01  2.631E+00  4.568E-04  1.439E-04  3.970E-04\n',
               '-   1    4   95     1    95    8.4838E-01  5.4070E-04   '
               '8.4784E-01  0.000E+00  0.000E+00  0.000E+00  1.12334E+02  '
               '6.838E-01  2.631E+00  4.568E-04  1.453E-04  3.954E-04\n',
               '-   1    4   96     1    96    8.4784E-01  5.4052E-04   '
               '8.4730E-01  0.000E+00  0.000E+00  0.000E+00  1.12034E+02  '
               '6.836E-01  2.630E+00  4.567E-04  1.483E-04  3.922E-04\n',
               '-   1    4   97     1    97    8.4730E-01  5.4035E-04   '
               '8.4676E-01  0.000E+00  0.000E+00  0.000E+00  1.11733E+02  '
               '6.834E-01  2.630E+00  4.566E-04  1.491E-04  3.912E-04\n',
               '-   1    4   98     1    98    8.4676E-01  5.4017E-04   '
               '8.4622E-01  0.000E+00  0.000E+00  0.000E+00  1.11433E+02  '
               '6.832E-01  2.630E+00  4.565E-04  1.501E-04  3.901E-04\n',
               '-   1    4   99     1    99    8.4622E-01  5.3999E-04   '
               '8.4568E-01  0.000E+00  0.000E+00  0.000E+00  1.11133E+02  '
               '6.830E-01  2.630E+00  4.565E-04  1.511E-04  3.889E-04\n',
               '-   1    4  100     1   100    8.4568E-01  5.3982E-04   '
               '8.4514E-01  0.000E+00  0.000E+00  0.000E+00  1.10833E+02  '
               '6.827E-01  2.629E+00  4.564E-04  1.678E-04  3.721E-04\n',
               '-\n',
               '-\n',
               '-\n',
               '-1\n',
               '-  VOLUMETRIC BUDGET FOR UNSATURATED ZONE BENEATH STREAMS AT '
               'END OF TIME STEP    30 STRESS PERIOD  50\n',
               '-  '
               '------------------------------------------------------------------------------------------------\n',
               '-\n',
               '-    CUMULATIVE VOLUMES             L**3    RATES FOR THIS '
               'TIME STEP         L**3/T\n',
               '-    ------------------                     '
               '------------------------\n',
               '-\n',
               '-\n',
               '-          STREAM LOSS =     35728820.0000            STREAM '
               'LOSS =        5.4863E-02\n',
               '-    CHANGE IN STORAGE =       317701.2188      CHANGE IN '
               'STORAGE =        1.9271E-02\n',
               '-       RECHARGE TO GW =     35416388.0000         RECHARGE TO '
               'GW =        3.5592E-02\n',
               '-\n',
               '-             TOTAL IN =     35728820.0000               TOTAL '
               'IN =        5.4863E-02\n',
               '-\n',
               '-            TOTAL OUT =     35734088.0000              TOTAL '
               'OUT =        5.4863E-02\n',
               '-\n',
               '-             IN - OUT =        -5268.0000               IN - '
               'OUT =        3.7253E-09\n',
               '-\n',
               '-  PERCENT DISCREPANCY =           -0.00      PERCENT '
               'DISCREPANCY =             0.00\n',
               '-\n',
               '-\n',
               '-\n',
               '-1\n',
               '-              HEAD IN LAYER   1 AT END OF TIME STEP  30 IN '
               'STRESS PERIOD   50\n',
               '-  '
               '---------------------------------------------------------------------------\n',
               '-\n',
               '-          1      2      3      4      5      6      7      '
               '8      9     10\n',
               '-         11     12     13     14     15     16     17     '
               '18     19     20\n',
               '-         21     22     23     24     25     26     27     '
               '28     29     30\n',
               '-         31     32     33     34     35     36     37     '
               '38     39     40\n',
               '-         41     42     43     44     45     46     47     '
               '48     49     50\n',
               '-         51     52     53     54     55     56     57     '
               '58     59     60\n',
               '-         61     62     63     64     65     66     67     '
               '68     69     70\n',
               '-         71     72     73     74     75     76     77     '
               '78     79     80\n',
               '-         81     82     83     84     85     86     87     '
               '88     89     90\n',
               '-         91     92     93     94     95     96     97     '
               '98     99    100\n',
               '- '
               '.........................................................................\n',
               '-   1   115.2  115.2  115.2  115.2  115.2  115.1  115.1  '
               '115.0  115.0  114.9\n',
               '-       114.9  114.8  114.8  114.7  114.6  114.5  114.4  '
               '114.3  114.2  114.1\n',
               '-       114.0  113.8  113.7  113.6  113.4  113.3  113.1  '
               '112.9  112.8  112.6\n',
               '-       112.4  112.2  112.0  111.8  111.6  111.3  111.1  '
               '110.9  110.6  110.4\n',
               '-       110.1  109.8  109.5  109.3  109.0  108.6  108.3  '
               '108.0  107.7  107.3\n',
               '-       107.0  106.6  106.3  105.9  105.5  105.1  104.7  '
               '104.3  103.8  103.4\n',
               '-       102.9  102.5  102.0  101.5  101.0  100.5  100.0   '
               '99.5   98.9   98.4\n',
               '-        97.8   97.2   96.6   96.0   95.4   94.8   94.1   '
               '93.5   92.8   92.1\n',
               '-        91.4   90.7   89.9   89.2   88.4   87.6   86.8   '
               '86.0   85.2   84.4\n',
               '-        83.5   82.6   81.7   80.8   79.9   78.9   78.0   '
               '77.0   76.0   75.0\n',
               '-   2   115.2  115.2  115.2  115.2  115.2  115.1  115.1  '
               '115.0  115.0  114.9\n',
               '-       114.9  114.8  114.8  114.7  114.6  114.5  114.4  '
               '114.3  114.2  114.1\n',
               '-       114.0  113.8  113.7  113.6  113.4  113.3  113.1  '
               '112.9  112.8  112.6\n',
               '-       112.4  112.2  112.0  111.8  111.6  111.3  111.1  '
               '110.9  110.6  110.4\n',
               '-       110.1  109.8  109.5  109.3  109.0  108.6  108.3  '
               '108.0  107.7  107.3\n',
               '-       107.0  106.6  106.3  105.9  105.5  105.1  104.7  '
               '104.3  103.8  103.4\n',
               '-       102.9  102.5  102.0  101.5  101.0  100.5  100.0   '
               '99.5   98.9   98.4\n',
               '-        97.8   97.2   96.6   96.0   95.4   94.8   94.1   '
               '93.5   92.8   92.1\n',
               '-        91.4   90.7   89.9   89.2   88.4   87.6   86.8   '
               '86.0   85.2   84.4\n',
               '-        83.5   82.6   81.7   80.8   79.9   78.9   78.0   '
               '77.0   76.0   75.0\n',
               '-   3   115.2  115.2  115.2  115.2  115.2  115.1  115.1  '
               '115.0  115.0  114.9\n',
               '-       114.9  114.8  114.8  114.7  114.6  114.5  114.4  '
               '114.3  114.2  114.1\n',
               '-       114.0  113.8  113.7  113.6  113.4  113.3  113.1  '
               '112.9  112.8  112.6\n',
               '-       112.4  112.2  112.0  111.8  111.6  111.3  111.1  '
               '110.9  110.6  110.4\n',
               '-       110.1  109.8  109.5  109.3  109.0  108.6  108.3  '
               '108.0  107.7  107.3\n',
               '-       107.0  106.6  106.3  105.9  105.5  105.1  104.7  '
               '104.3  103.8  103.4\n',
               '-       102.9  102.5  102.0  101.5  101.0  100.5  100.0   '
               '99.5   98.9   98.4\n',
               '-        97.8   97.2   96.6   96.0   95.4   94.8   94.1   '
               '93.5   92.8   92.1\n',
               '-        91.4   90.7   89.9   89.2   88.4   87.6   86.9   '
               '86.0   85.2   84.4\n',
               '-        83.5   82.6   81.7   80.8   79.9   78.9   78.0   '
               '77.0   76.0   75.0\n',
               '-   4   115.2  115.2  115.2  115.2  115.2  115.1  115.1  '
               '115.0  115.0  114.9\n',
               '-       114.9  114.8  114.8  114.7  114.6  114.5  114.4  '
               '114.3  114.2  114.1\n',
               '-       114.0  113.8  113.7  113.6  113.4  113.3  113.1  '
               '112.9  112.8  112.6\n',
               '-       112.4  112.2  112.0  111.8  111.6  111.3  111.1  '
               '110.9  110.6  110.4\n',
               '-       110.1  109.8  109.5  109.3  109.0  108.6  108.3  '
               '108.0  107.7  107.3\n',
               '-       107.0  106.6  106.3  105.9  105.5  105.1  104.7  '
               '104.3  103.8  103.4\n',
               '-       102.9  102.5  102.0  101.5  101.0  100.5  100.0   '
               '99.5   98.9   98.4\n',
               '-        97.8   97.2   96.6   96.0   95.4   94.8   94.1   '
               '93.5   92.8   92.1\n',
               '-        91.4   90.7   89.9   89.2   88.4   87.6   86.9   '
               '86.0   85.2   84.4\n',
               '-        83.5   82.6   81.7   80.8   79.9   78.9   78.0   '
               '77.0   76.0   75.0\n',
               '-   5   115.2  115.2  115.2  115.2  115.2  115.1  115.1  '
               '115.0  115.0  114.9\n',
               '-       114.9  114.8  114.8  114.7  114.6  114.5  114.4  '
               '114.3  114.2  114.1\n',
               '-       114.0  113.8  113.7  113.6  113.4  113.3  113.1  '
               '112.9  112.8  112.6\n',
               '-       112.4  112.2  112.0  111.8  111.6  111.3  111.1  '
               '110.9  110.6  110.4\n',
               '-       110.1  109.8  109.5  109.3  109.0  108.6  108.3  '
               '108.0  107.7  107.3\n',
               '-       107.0  106.6  106.3  105.9  105.5  105.1  104.7  '
               '104.3  103.8  103.4\n',
               '-       102.9  102.5  102.0  101.5  101.0  100.5  100.0   '
               '99.5   98.9   98.4\n',
               '-        97.8   97.2   96.6   96.0   95.4   94.8   94.1   '
               '93.5   92.8   92.1\n',
               '-        91.4   90.7   89.9   89.2   88.4   87.6   86.9   '
               '86.0   85.2   84.4\n',
               '-        83.5   82.6   81.7   80.8   79.9   78.9   78.0   '
               '77.0   76.0   75.0\n',
               '-   6   115.2  115.2  115.2  115.2  115.2  115.1  115.1  '
               '115.0  115.0  114.9\n',
               '-       114.9  114.8  114.8  114.7  114.6  114.5  114.4  '
               '114.3  114.2  114.1\n',
               '-       114.0  113.8  113.7  113.6  113.4  113.3  113.1  '
               '112.9  112.8  112.6\n',
               '-       112.4  112.2  112.0  111.8  111.6  111.3  111.1  '
               '110.9  110.6  110.4\n',
               '-       110.1  109.8  109.5  109.3  109.0  108.6  108.3  '
               '108.0  107.7  107.3\n',
               '-       107.0  106.6  106.3  105.9  105.5  105.1  104.7  '
               '104.3  103.8  103.4\n',
               '-       102.9  102.5  102.0  101.5  101.0  100.5  100.0   '
               '99.5   98.9   98.4\n',
               '-        97.8   97.2   96.6   96.0   95.4   94.8   94.1   '
               '93.5   92.8   92.1\n',
               '-        91.4   90.7   89.9   89.2   88.4   87.6   86.8   '
               '86.0   85.2   84.4\n',
               '-        83.5   82.6   81.7   80.8   79.9   78.9   78.0   '
               '77.0   76.0   75.0\n',
               '-   7   115.2  115.2  115.2  115.2  115.2  115.1  115.1  '
               '115.0  115.0  114.9\n',
               '-       114.9  114.8  114.8  114.7  114.6  114.5  114.4  '
               '114.3  114.2  114.1\n',
               '-       114.0  113.8  113.7  113.6  113.4  113.3  113.1  '
               '112.9  112.8  112.6\n',
               '-       112.4  112.2  112.0  111.8  111.6  111.3  111.1  '
               '110.9  110.6  110.4\n',
               '-       110.1  109.8  109.5  109.3  109.0  108.6  108.3  '
               '108.0  107.7  107.3\n',
               '-       107.0  106.6  106.3  105.9  105.5  105.1  104.7  '
               '104.3  103.8  103.4\n',
               '-       102.9  102.5  102.0  101.5  101.0  100.5  100.0   '
               '99.5   98.9   98.4\n',
               '-        97.8   97.2   96.6   96.0   95.4   94.8   94.1   '
               '93.5   92.8   92.1\n',
               '-        91.4   90.7   89.9   89.2   88.4   87.6   86.8   '
               '86.0   85.2   84.4\n',
               '-        83.5   82.6   81.7   80.8   79.9   78.9   78.0   '
               '77.0   76.0   75.0\n',
               '-1\n',
               '-  VOLUMETRIC BUDGET FOR ENTIRE MODEL AT END OF TIME STEP   '
               '30, STRESS PERIOD  50\n',
               '-  '
               '------------------------------------------------------------------------------\n',
               '-\n',
               '-     CUMULATIVE VOLUMES      L**3       RATES FOR THIS TIME '
               'STEP      L**3/T\n',
               '-     ------------------                 '
               '------------------------\n',
               '-\n',
               '-           IN:                                      IN:\n',
               '-           ---                                      ---\n',
               '-             STORAGE =    18286950.0000               STORAGE '
               '=           0.1473\n',
               '-       CONSTANT HEAD =           0.0000         CONSTANT HEAD '
               '=           0.0000\n',
               '-     HEAD DEP BOUNDS =           0.0000       HEAD DEP BOUNDS '
               '=           0.0000\n',
               '-      STREAM LEAKAGE =    35415708.0000        STREAM LEAKAGE '
               '=       3.5592E-02\n',
               '-\n',
               '-            TOTAL IN =    53702656.0000              TOTAL IN '
               '=           0.1829\n',
               '-\n',
               '-          OUT:                                     OUT:\n',
               '-          ----                                     ----\n',
               '-             STORAGE =    17097026.0000               STORAGE '
               '=           0.0000\n',
               '-       CONSTANT HEAD =           0.0000         CONSTANT HEAD '
               '=           0.0000\n',
               '-     HEAD DEP BOUNDS =    36604996.0000       HEAD DEP BOUNDS '
               '=           0.1828\n',
               '-      STREAM LEAKAGE =           0.0000        STREAM LEAKAGE '
               '=           0.0000\n',
               '-\n',
               '-           TOTAL OUT =    53702024.0000             TOTAL OUT '
               '=           0.1828\n',
               '-\n',
               '-            IN - OUT =         632.0000              IN - OUT '
               '=       1.0982E-04\n',
               '-\n',
               '- PERCENT DISCREPANCY =           0.00     PERCENT DISCREPANCY '
               '=           0.06\n',
               '-\n',
               '-\n',
               '-\n',
               '-\n',
               '-\n',
               '-\n',
               '-         TIME SUMMARY AT END OF TIME STEP   30 IN STRESS '
               'PERIOD   50\n',
               '-                    SECONDS     MINUTES      HOURS       '
               'DAYS        YEARS\n',
               '-                    '
               '-----------------------------------------------------------\n',
               '-   TIME STEP LENGTH 2.49961E+05  4166.0      69.434      '
               '2.8931     7.92080E-03\n',
               '- STRESS PERIOD TIME 2.59200E+06  43200.      720.00      '
               '30.000     8.21355E-02\n',
               '-         TOTAL TIME 1.29600E+08 2.16000E+06  36000.      '
               '1500.0      4.1068    \n',
               '-1\n',
               '-\n',
               '- Run end date and time (yyyy/mm/dd hh:mm:ss): 2017/02/02 '
               '12:58:45\n',
               '- Elapsed run time: 31.589 Seconds\n',
               '-\n',
               '+ *** ERROR OPENING FILE "testsfr2_tab_ICALC2.sfr" ON UNIT    '
               '45\n',
               '+       SPECIFIED FILE STATUS: OLD    \n',
               '+       SPECIFIED FILE FORMAT: FORMATTED           \n',
               '+       SPECIFIED FILE ACCESS: SEQUENTIAL          \n',
               '+       SPECIFIED FILE ACTION: READ                \n',
               '+  -- STOP EXECUTION (SGWF2BAS7OPEN)\n'],
    'mes': [],
    'suc': False}

{   'dif': [   '--- UZFtest2reference namefile\n',
               '+++ UZFtest2direct namefile\n',
               '@@ -54 +54 @@\n',
               '- FORMAT:BINARY                 ACCESS:SEQUENTIAL          \n',
               '+ FORMAT:UNFORMATTED            ACCESS:STREAM              \n',
               '@@ -10174,3 +10174,3 @@\n',
               '- Run end date and time (yyyy/mm/dd hh:mm:ss): 2017/02/02 '
               '12:58:55\n',
               '- Elapsed run time:  6.691 Seconds\n',
               '-\n',
               '+ Run end date and time (yyyy/mm/dd hh:mm:ss): 2021/05/02 '
               '21:41:40\n',
               '+ Elapsed run time:  3.057 Seconds\n',
               '+\n'],
    'mes': [],
    'suc': True}

{   'dif': [   '--- fhbreference namefile\n',
               '+++ fhbdirect namefile\n',
               '@@ -34 +34 @@\n',
               '- FORMAT:BINARY                 ACCESS:SEQUENTIAL          \n',
               '+ FORMAT:UNFORMATTED            ACCESS:STREAM              \n',
               '@@ -38 +38 @@\n',
               '- FORMAT:BINARY                 ACCESS:SEQUENTIAL          \n',
               '+ FORMAT:UNFORMATTED            ACCESS:STREAM              \n',
               '@@ -591,3 +591,3 @@\n',
               '- Run end date and time (yyyy/mm/dd hh:mm:ss): 2017/02/02 '
               '12:53:08\n',
               '- Elapsed run time:  0.015 Seconds\n',
               '-\n',
               '+ Run end date and time (yyyy/mm/dd hh:mm:ss): 2021/05/02 '
               '21:41:41\n',
               '+ Elapsed run time:  0.006 Seconds\n',
               '+\n'],
    'mes': [],
    'suc': True}

{   'dif': [   '--- swtex4reference namefile\n',
               '+++ swtex4direct namefile\n',
               '@@ -38 +38 @@\n',
               '- FORMAT:BINARY                 ACCESS:SEQUENTIAL          \n',
               '+ FORMAT:UNFORMATTED            ACCESS:STREAM              \n',
               '@@ -42 +42 @@\n',
               '- FORMAT:BINARY                 ACCESS:SEQUENTIAL          \n',
               '+ FORMAT:UNFORMATTED            ACCESS:STREAM              \n',
               '@@ -46 +46 @@\n',
               '- FORMAT:BINARY                 ACCESS:SEQUENTIAL          \n',
               '+ FORMAT:UNFORMATTED            ACCESS:STREAM              \n',
               '@@ -50 +50 @@\n',
               '- FORMAT:BINARY                 ACCESS:SEQUENTIAL          \n',
               '+ FORMAT:UNFORMATTED            ACCESS:STREAM              \n',
               '@@ -54 +54 @@\n',
               '- FORMAT:BINARY                 ACCESS:SEQUENTIAL          \n',
               '+ FORMAT:UNFORMATTED            ACCESS:STREAM              \n',
               '@@ -58 +58 @@\n',
               '- FORMAT:BINARY                 ACCESS:SEQUENTIAL          \n',
               '+ FORMAT:UNFORMATTED            ACCESS:STREAM              \n',
               '@@ -6471,3 +6471,3 @@\n',
               '- Run end date and time (yyyy/mm/dd hh:mm:ss): 2017/02/02 '
               '12:57:40\n',
               '- Elapsed run time:  0.951 Seconds\n',
               '-\n',
               '+ Run end date and time (yyyy/mm/dd hh:mm:ss): 2021/05/02 '
               '21:41:41\n',
               '+ Elapsed run time:  0.299 Seconds\n',
               '+\n'],
    'mes': [],
    'suc': True}

{'dif': ['Failed to compare'], 'mes': [], 'suc': False}

{   'dif': [   '--- test1ssreference namefile\n',
               '+++ test1ssdirect namefile\n',
               '@@ -54 +54 @@\n',
               '- FORMAT:BINARY                 ACCESS:SEQUENTIAL          \n',
               '+ FORMAT:UNFORMATTED            ACCESS:STREAM              \n',
               '@@ -713,3 +713,3 @@\n',
               '- Run end date and time (yyyy/mm/dd hh:mm:ss): 2017/02/02 '
               '12:57:41\n',
               '- Elapsed run time:  0.093 Seconds\n',
               '-\n',
               '+ Run end date and time (yyyy/mm/dd hh:mm:ss): 2021/05/02 '
               '21:41:41\n',
               '+ Elapsed run time:  0.019 Seconds\n',
               '+\n'],
    'mes': [],
    'suc': True}

{   'dif': [   '--- mnw1reference namefile\n',
               '+++ mnw1direct namefile\n',
               '@@ -50 +50 @@\n',
               '- FORMAT:BINARY                 ACCESS:SEQUENTIAL          \n',
               '+ FORMAT:UNFORMATTED            ACCESS:STREAM              \n',
               '@@ -54 +54 @@\n',
               '- FORMAT:BINARY                 ACCESS:SEQUENTIAL          \n',
               '+ FORMAT:UNFORMATTED            ACCESS:STREAM              \n',
               '@@ -2136,3 +2136,3 @@\n',
               '- Run end date and time (yyyy/mm/dd hh:mm:ss): 2017/02/02 '
               '12:53:10\n',
               '- Elapsed run time:  0.296 Seconds\n',
               '-\n',
               '+ Run end date and time (yyyy/mm/dd hh:mm:ss): 2021/05/02 '
               '21:41:42\n',
               '+ Elapsed run time:  0.066 Seconds\n',
               '+\n'],
    'mes': [],
    'suc': True}

{   'dif': [   '--- test1trreference namefile\n',
               '+++ test1trdirect namefile\n',
               '@@ -58 +58 @@\n',
               '- FORMAT:BINARY                 ACCESS:SEQUENTIAL          \n',
               '+ FORMAT:UNFORMATTED            ACCESS:STREAM              \n',
               '@@ -6266,3 +6266,3 @@\n',
               '- Run end date and time (yyyy/mm/dd hh:mm:ss): 2017/02/02 '
               '12:57:42\n',
               '- Elapsed run time:  0.795 Seconds\n',
               '-\n',
               '+ Run end date and time (yyyy/mm/dd hh:mm:ss): 2021/05/02 '
               '21:41:42\n',
               '+ Elapsed run time:  0.324 Seconds\n',
               '+\n'],
    'mes': [],
    'suc': True}

{   'dif': [   '--- tr2k_s3reference namefile\n',
               '+++ tr2k_s3direct namefile\n',
               '@@ -40 +40 @@\n',
               '- FORMAT:BINARY                 ACCESS:SEQUENTIAL          \n',
               '+ FORMAT:UNFORMATTED            ACCESS:STREAM              \n',
               '@@ -44 +44 @@\n',
               '- FORMAT:BINARY                 ACCESS:SEQUENTIAL          \n',
               '+ FORMAT:UNFORMATTED            ACCESS:STREAM              \n',
               '@@ -48 +48 @@\n',
               '- FORMAT:BINARY                 ACCESS:SEQUENTIAL          \n',
               '+ FORMAT:UNFORMATTED            ACCESS:STREAM              \n',
               '@@ -52 +52 @@\n',
               '- FORMAT:BINARY                 ACCESS:SEQUENTIAL          \n',
               '+ FORMAT:UNFORMATTED            ACCESS:STREAM              \n',
               '@@ -10281,3 +10281,3 @@\n',
               '- Run end date and time (yyyy/mm/dd hh:mm:ss): 2017/02/02 '
               '12:58:47\n',
               '- Elapsed run time:  1.778 Seconds\n',
               '-\n',
               '+ Run end date and time (yyyy/mm/dd hh:mm:ss): 2021/05/02 '
               '21:44:24\n',
               '+ Elapsed run time:  0.620 Seconds\n',
               '+\n'],
    'mes': [],
    'suc': True}

